@<TRIPOS>MOLECULE
1-iodopentane
   17    16     0     0     0
SMALL
USER_CHARGES

@<TRIPOS>ATOM
      1 C1          2.1339   -1.3875   -1.4660 C.3       1 MOL        -0.0925
      2 C2          1.2425   -0.2585   -0.9722 C.3       1 MOL        -0.0800
      3 C3          0.4443   -0.6145    0.2839 C.3       1 MOL        -0.0804
      4 C4         -0.4711    0.5157    0.7620 C.3       1 MOL        -0.0759
      5 C5         -1.2695    0.0906    1.9948 C.3       1 MOL         0.0676
      6 I1         -2.5668    1.6658    2.6337 I         1 MOL        -0.2537
      7 H1          2.8304   -1.7177   -0.6900 H         1 MOL         0.0338
      8 H2          1.5234   -2.2504   -1.7511 H         1 MOL         0.0338
      9 H3          2.7119   -1.0774   -2.3422 H         1 MOL         0.0338
     10 H4          0.5600    0.0451   -1.7747 H         1 MOL         0.0400
     11 H5          1.8733    0.6100   -0.7477 H         1 MOL         0.0400
     12 H6          1.1553   -0.8619    1.0820 H         1 MOL         0.0416
     13 H7         -0.1491   -1.5181    0.0983 H         1 MOL         0.0416
     14 H8          0.1340    1.4008    0.9945 H         1 MOL         0.0537
     15 H9         -1.1613    0.7997   -0.0409 H         1 MOL         0.0537
     16 H10        -0.5886   -0.1713    2.8122 H         1 MOL         0.0714
     17 H11        -1.8653   -0.8005    1.7677 H         1 MOL         0.0714
@<TRIPOS>BOND
     1    1    2 1
     2    2    3 1
     3    3    4 1
     4    4    5 1
     5    5    6 1
     6    1    7 1
     7    1    8 1
     8    1    9 1
     9    2   10 1
    10    2   11 1
    11    3   12 1
    12    3   13 1
    13    4   14 1
    14    4   15 1
    15    5   16 1
    16    5   17 1
