@<TRIPOS>MOLECULE
N-methylacetamide
   12    11     0     0     0
SMALL
USER_CHARGES

@<TRIPOS>ATOM
      1 C1          0.7453   -0.9428    1.8037 C.2       1 MOL         0.6593
      2 C2          0.9501   -0.2286    0.5090 C.3       1 MOL        -0.1762
      3 C3          1.1634   -0.7869    4.2498 C.3       1 MOL         0.0847
      4 N1          1.2543   -0.2751    2.9012 N.am      1 MOL        -0.5843
      5 O1          0.1659   -2.0225    1.8130 O.2       1 MOL        -0.6032
      6 H1          1.8989   -0.5052    0.0217 H         1 MOL         0.0641
      7 H2          0.1653   -0.4616   -0.2284 H         1 MOL         0.0641
      8 H3          0.9682    0.8710    0.5750 H         1 MOL         0.0641
      9 H4          0.2421   -0.4373    4.7231 H         1 MOL         0.0410
     10 H5          2.0156   -0.4438    4.8426 H         1 MOL         0.0410
     11 H6          1.1608   -1.8802    4.2398 H         1 MOL         0.0410
     12 H7          1.7145    0.6181    2.7531 H         1 MOL         0.3044
@<TRIPOS>BOND
     1    1    2 1
     2    1    4 am
     3    1    5 2
     4    3    4 1
     5    2    6 1
     6    2    7 1
     7    2    8 1
     8    3    9 1
     9    3   10 1
    10    3   11 1
    11    4   12 1
