@<TRIPOS>MOLECULE
propan-1-amine
   13    12     0     0     0
SMALL
USER_CHARGES

@<TRIPOS>ATOM
      1 C1          0.9917    0.0882   -0.4552 C.3       1 MOL        -0.0905
      2 C2          1.2282    1.5173   -0.9225 C.3       1 MOL        -0.0857
      3 C3          2.6189    1.7221   -1.5111 C.3       1 MOL         0.1628
      4 N1          2.8413    3.0780   -1.9307 N.3       1 MOL        -0.9190
      5 H1          1.1073   -0.6192   -1.2826 H         1 MOL         0.0339
      6 H2          1.7156   -0.1786    0.3216 H         1 MOL         0.0339
      7 H3         -0.0113   -0.0335   -0.0348 H         1 MOL         0.0339
      8 H4          1.1032    2.1909   -0.0667 H         1 MOL         0.0437
      9 H5          0.4636    1.7859   -1.6611 H         1 MOL         0.0437
     10 H6          3.3810    1.4905   -0.7604 H         1 MOL         0.0234
     11 H7          2.7840    1.0720   -2.3761 H         1 MOL         0.0234
     12 H8          3.5322    3.2671   -2.6404 H         1 MOL         0.3483
     13 H9          2.4623    3.8326   -1.3797 H         1 MOL         0.3483
@<TRIPOS>BOND
     1    1    2 1
     2    2    3 1
     3    3    4 1
     4    1    5 1
     5    1    6 1
     6    1    7 1
     7    2    8 1
     8    2    9 1
     9    3   10 1
    10    3   11 1
    11    4   12 1
    12    4   13 1
