@<TRIPOS>MOLECULE
diethoxy-thioxo-[(3,5,6-trichloro-2-pyridyl)oxy]-$l^{5}-phosphane
   29    29     0     0     0
SMALL
USER_CHARGES

@<TRIPOS>ATOM
      1 C1         -2.6962    3.1500   -3.3378 C.ar      1 MOL        -0.0722
      2 C2         -2.0479    2.0601   -3.9079 C.ar      1 MOL        -0.1053
      3 C3         -2.8081    3.2400   -1.9548 C.ar      1 MOL        -0.0981
      4 C4         -1.5328    1.0946   -3.0580 C.ar      1 MOL         0.6596
      5 C5         -2.2592    2.2215   -1.1923 C.ar      1 MOL         0.5167
      6 C6          2.8176   -0.1342   -0.4726 C.3       1 MOL        -0.1180
      7 C7          1.2811   -3.0311   -5.8704 C.3       1 MOL        -0.1180
      8 C8          1.9592   -1.1100   -1.2489 C.3       1 MOL         0.1517
      9 C9          0.1753   -2.4409   -5.0216 C.3       1 MOL         0.1517
     10 N1         -1.6221    1.1474   -1.7101 N.ar      1 MOL        -0.6400
     11 O1         -0.8843    0.0037   -3.5707 O.3       1 MOL        -0.5569
     12 O2          0.8703   -0.4092   -1.8262 O.3       1 MOL        -0.5279
     13 O3          0.7376   -1.9141   -3.8319 O.3       1 MOL        -0.5279
     14 P1         -0.2256   -1.2121   -2.7243 P.3       1 MOL         1.2329
     15 S1         -1.4493   -2.3693   -1.7408 S.2       1 MOL        -0.5792
     16 Cl1        -1.9023    1.9456   -5.6174 Cl        1 MOL        -0.0240
     17 Cl2        -3.6119    4.5983   -1.2672 Cl        1 MOL        -0.0334
     18 Cl3        -2.3245    2.1967    0.5287 Cl        1 MOL        -0.0992
     19 H1         -3.1123    3.9292   -3.9728 H         1 MOL         0.1771
     20 H2          3.2133    0.6455   -1.1293 H         1 MOL         0.0579
     21 H3          2.2381    0.3379    0.3276 H         1 MOL         0.0579
     22 H4          3.6557   -0.6528    0.0049 H         1 MOL         0.0579
     23 H5          2.0159   -2.2675   -6.1401 H         1 MOL         0.0579
     24 H6          1.7906   -3.8382   -5.3338 H         1 MOL         0.0579
     25 H7          0.8722   -3.4675   -6.7878 H         1 MOL         0.0579
     26 H8          1.5667   -1.8872   -0.5863 H         1 MOL         0.0657
     27 H9          2.5395   -1.5801   -2.0484 H         1 MOL         0.0657
     28 H10        -0.5561   -3.2098   -4.7554 H         1 MOL         0.0657
     29 H11        -0.3322   -1.6342   -5.5589 H         1 MOL         0.0657
@<TRIPOS>BOND
     1    1    2 ar
     2    1    3 ar
     3    2    4 ar
     4    2   16 1
     5    3    5 ar
     6    3   17 1
     7    4   10 ar
     8    4   11 1
     9    5   10 ar
    10    5   18 1
    11    6    8 1
    12    7    9 1
    13    8   12 1
    14    9   13 1
    15   11   14 1
    16   12   14 1
    17   13   14 1
    18   14   15 2
    19    1   19 1
    20    6   20 1
    21    6   21 1
    22    6   22 1
    23    7   23 1
    24    7   24 1
    25    7   25 1
    26    8   26 1
    27    8   27 1
    28    9   28 1
    29    9   29 1
