@<TRIPOS>MOLECULE
1-bromo-2-chloro-ethane
    8     7     0     0     0
SMALL
USER_CHARGES

@<TRIPOS>ATOM
      1 C1         -0.2688    0.5219    0.4902 C.3       1 MOL         0.0333
      2 C2          0.2376   -0.5482   -0.4514 C.3       1 MOL        -0.0275
      3 Cl1        -1.2788   -0.2086    1.7582 Cl        1 MOL        -0.1833
      4 Br1         1.2898    0.2764   -1.8674 Br        1 MOL        -0.1596
      5 H1          0.5554    1.0471    0.9831 H         1 MOL         0.0801
      6 H2         -0.8793    1.2635   -0.0349 H         1 MOL         0.0801
      7 H3         -0.5770   -1.0866   -0.9437 H         1 MOL         0.0884
      8 H4          0.8974   -1.2623    0.0494 H         1 MOL         0.0884
@<TRIPOS>BOND
     1    1    2 1
     2    1    3 1
     3    2    4 1
     4    1    5 1
     5    1    6 1
     6    2    7 1
     7    2    8 1
