@<TRIPOS>MOLECULE
1,3,7-trimethylpurine-2,6-dione
   24    25     0     0     0
SMALL
USER_CHARGES

@<TRIPOS>ATOM
      1 C1          5.1112    0.7768   -0.9264 C.2       1 MOL         0.4424
      2 C2          3.6441    2.3853   -1.2367 C.2       1 MOL        -0.3505
      3 C3          3.0449    1.2362   -0.7981 C.2       1 MOL         0.4845
      4 C4          2.9523    3.5995   -1.5265 C.2       1 MOL         0.7638
      5 C5          0.8629    2.2904   -0.8430 C.2       1 MOL         0.8128
      6 C6          6.0477    2.9539   -1.7310 C.3       1 MOL         0.0166
      7 C7          1.0831   -0.0921   -0.1245 C.3       1 MOL         0.0919
      8 C8          0.7590    4.6603   -1.5747 C.3       1 MOL         0.0788
      9 N1          3.9557    0.2327   -0.6044 N.2       1 MOL        -0.6845
     10 N2          4.9734    2.0838   -1.3171 N.pl3     1 MOL        -0.1468
     11 N3          1.6743    1.1555   -0.5931 N.am      1 MOL        -0.4167
     12 N4          1.5557    3.4679   -1.3036 N.am      1 MOL        -0.4842
     13 O1          3.5018    4.6256   -1.9190 O.2       1 MOL        -0.6296
     14 O2         -0.3616    2.2696   -0.6756 O.2       1 MOL        -0.6380
     15 H1          6.0715    0.2803   -0.8973 H         1 MOL         0.0692
     16 H2          6.1690    2.8492   -2.8124 H         1 MOL         0.0697
     17 H3          5.7997    3.9871   -1.4724 H         1 MOL         0.0697
     18 H4          6.9664    2.6656   -1.2124 H         1 MOL         0.0697
     19 H5          1.0582   -0.1090    0.9682 H         1 MOL         0.0634
     20 H6          1.6708   -0.9444   -0.4762 H         1 MOL         0.0634
     21 H7          0.0616   -0.1913   -0.5013 H         1 MOL         0.0634
     22 H8          0.4276    4.6619   -2.6164 H         1 MOL         0.0636
     23 H9          1.3522    5.5606   -1.3928 H         1 MOL         0.0636
     24 H10        -0.1204    4.6830   -0.9255 H         1 MOL         0.0636
@<TRIPOS>BOND
     1    1    9 2
     2    1   10 1
     3    2    3 2
     4    2    4 1
     5    2   10 1
     6    3    9 1
     7    3   11 1
     8    4   12 am
     9    4   13 2
    10    5   11 am
    11    5   12 am
    12    5   14 2
    13    6   10 1
    14    7   11 1
    15    8   12 1
    16    1   15 1
    17    6   16 1
    18    6   17 1
    19    6   18 1
    20    7   19 1
    21    7   20 1
    22    7   21 1
    23    8   22 1
    24    8   23 1
    25    8   24 1
