@<TRIPOS>MOLECULE
5-chloro-1H-pyrimidine-2,4-dione
   12    12     0     0     0
SMALL
USER_CHARGES

@<TRIPOS>ATOM
      1 C1          0.6683    1.3560   -0.0606 C.2       1 MOL         0.0476
      2 C2         -0.2942    0.9374    0.7650 C.2       1 MOL        -0.1751
      3 C3         -0.8091   -0.4513    0.6456 C.2       1 MOL         0.7195
      4 C4          0.8025   -0.7659   -1.2254 C.2       1 MOL         0.8033
      5 N1          1.2054    0.5461   -1.0239 N.am      1 MOL        -0.4640
      6 N2         -0.2056   -1.2004   -0.3593 N.am      1 MOL        -0.5850
      7 O1         -1.6923   -0.8865    1.3791 O.2       1 MOL        -0.5818
      8 O2          1.2905   -1.4901   -2.0938 O.2       1 MOL        -0.6286
      9 Cl1        -0.9656    1.9548    1.9733 Cl        1 MOL        -0.0272
     10 H1          1.0829    2.3565   -0.0200 H         1 MOL         0.1721
     11 H2          1.9350    0.9242   -1.6207 H         1 MOL         0.3606
     12 H3         -0.5290   -2.1567   -0.4754 H         1 MOL         0.3586
@<TRIPOS>BOND
     1    1    2 2
     2    1    5 1
     3    2    3 1
     4    2    9 1
     5    3    6 am
     6    3    7 2
     7    4    5 am
     8    4    6 am
     9    4    8 2
    10    1   10 1
    11    5   11 1
    12    6   12 1
