@<TRIPOS>MOLECULE
2-methylpent-1-ene
   18    17     0     0     0
SMALL
USER_CHARGES

@<TRIPOS>ATOM
      1 C1         -0.7318   -0.1149    2.2287 C.2       1 MOL        -0.2301
      2 C2         -0.0603    0.9915    1.8730 C.2       1 MOL        -0.1068
      3 C3         -0.0377    1.4694    0.4495 C.3       1 MOL        -0.0624
      4 C4          0.8970    4.0809    4.0049 C.3       1 MOL        -0.0956
      5 C5          0.6737    1.8302    2.8922 C.3       1 MOL        -0.0476
      6 C6          0.1244    3.2556    2.9869 C.3       1 MOL        -0.0728
      7 H1         -0.7480   -0.4601    3.2572 H         1 MOL         0.1112
      8 H2         -1.2836   -0.6995    1.5000 H         1 MOL         0.1112
      9 H3         -0.8705    2.1561    0.2662 H         1 MOL         0.0412
     10 H4          0.8989    1.9913    0.2312 H         1 MOL         0.0412
     11 H5         -0.1287    0.6425   -0.2631 H         1 MOL         0.0412
     12 H6          1.9610    4.1221    3.7507 H         1 MOL         0.0347
     13 H7          0.7991    3.6565    5.0091 H         1 MOL         0.0347
     14 H8          0.5143    5.1061    4.0303 H         1 MOL         0.0347
     15 H9          1.7426    1.8743    2.6450 H         1 MOL         0.0443
     16 H10         0.6112    1.3382    3.8711 H         1 MOL         0.0443
     17 H11        -0.9324    3.2392    3.2766 H         1 MOL         0.0383
     18 H12         0.1838    3.7468    2.0081 H         1 MOL         0.0383
@<TRIPOS>BOND
     1    1    2 2
     2    2    3 1
     3    2    5 1
     4    4    6 1
     5    5    6 1
     6    1    7 1
     7    1    8 1
     8    3    9 1
     9    3   10 1
    10    3   11 1
    11    4   12 1
    12    4   13 1
    13    4   14 1
    14    5   15 1
    15    5   16 1
    16    6   17 1
    17    6   18 1
