@<TRIPOS>MOLECULE
3-hydroxybenzonitrile
   14    14     0     0     0
SMALL
USER_CHARGES

@<TRIPOS>ATOM
      1 C1         -0.3411    0.1026    2.6453 C.1       1 MOL         0.2312
      2 C2          1.8851   -1.0363   -0.1124 C.ar      1 MOL        -0.1015
      3 C3          0.8066   -0.4630    0.5610 C.ar      1 MOL        -0.1251
      4 C4          2.9210   -1.6309    0.6081 C.ar      1 MOL        -0.1349
      5 C5          1.7997   -1.0786    2.6757 C.ar      1 MOL        -0.1800
      6 C6          0.7638   -0.4841    1.9551 C.ar      1 MOL         0.0207
      7 C7          2.8783   -1.6520    2.0022 C.ar      1 MOL         0.1224
      8 N1         -1.2386    0.5790    3.2059 N.1       1 MOL        -0.3584
      9 O1          3.8895   -2.2324    2.7044 O.3       1 MOL        -0.4924
     10 H1          1.9188   -1.0195   -1.1979 H         1 MOL         0.1441
     11 H2          0.0067   -0.0034   -0.0149 H         1 MOL         0.1475
     12 H3          3.7586   -2.0761    0.0780 H         1 MOL         0.1561
     13 H4          1.7752   -1.0989    3.7633 H         1 MOL         0.1468
     14 H5          3.7174   -2.1680    3.6573 H         1 MOL         0.4236
@<TRIPOS>BOND
     1    1    6 1
     2    1    8 3
     3    2    3 ar
     4    2    4 ar
     5    3    6 ar
     6    4    7 ar
     7    5    6 ar
     8    5    7 ar
     9    7    9 1
    10    2   10 1
    11    3   11 1
    12    4   12 1
    13    5   13 1
    14    9   14 1
