@<TRIPOS>MOLECULE
[(1S)-1-methylpropyl]benzene
   24    24     0     0     0
SMALL
USER_CHARGES

@<TRIPOS>ATOM
      1 C1         -2.8505   -3.0758    1.4950 C.ar      1 MOL        -0.1351
      2 C2         -1.4649   -3.0052    1.6389 C.ar      1 MOL        -0.1291
      3 C3         -3.6331   -1.9420    1.7136 C.ar      1 MOL        -0.1291
      4 C4         -0.8619   -1.8008    2.0016 C.ar      1 MOL        -0.1314
      5 C5         -3.0301   -0.7377    2.0763 C.ar      1 MOL        -0.1314
      6 C6         -1.6445   -0.6670    2.2202 C.ar      1 MOL        -0.0659
      7 C7          0.3475    0.8548    0.4435 C.3       1 MOL        -0.0961
      8 C8         -0.8826    0.7539    4.1414 C.3       1 MOL        -0.0894
      9 C9          0.3956    0.8503    1.9666 C.3       1 MOL        -0.0741
     10 C10        -0.9885    0.6449    2.6154 C.3       1 MOL        -0.0204
     11 H1         -3.3198   -4.0133    1.2113 H         1 MOL         0.1283
     12 H2         -0.8553   -3.8876    1.4677 H         1 MOL         0.1300
     13 H3         -4.7118   -1.9964    1.6006 H         1 MOL         0.1300
     14 H4          0.2184   -1.7552    2.1116 H         1 MOL         0.1323
     15 H5         -3.6479    0.1405    2.2447 H         1 MOL         0.1323
     16 H6         -0.3562    1.6168    0.0930 H         1 MOL         0.0364
     17 H7          1.3262    1.0820    0.0102 H         1 MOL         0.0364
     18 H8          0.0151   -0.1146    0.0588 H         1 MOL         0.0364
     19 H9         -0.2541   -0.0368    4.5654 H         1 MOL         0.0364
     20 H10        -0.4457    1.7162    4.4295 H         1 MOL         0.0364
     21 H11        -1.8709    0.6829    4.6096 H         1 MOL         0.0364
     22 H12         1.1040    0.0827    2.3002 H         1 MOL         0.0382
     23 H13         0.8042    1.8143    2.2954 H         1 MOL         0.0382
     24 H14        -1.6319    1.4717    2.2846 H         1 MOL         0.0547
@<TRIPOS>BOND
     1    1    2 ar
     2    1    3 ar
     3    2    4 ar
     4    3    5 ar
     5    4    6 ar
     6    5    6 ar
     7    6   10 1
     8    7    9 1
     9    8   10 1
    10    9   10 1
    11    1   11 1
    12    2   12 1
    13    3   13 1
    14    4   14 1
    15    5   15 1
    16    7   16 1
    17    7   17 1
    18    7   18 1
    19    8   19 1
    20    8   20 1
    21    8   21 1
    22    9   22 1
    23    9   23 1
    24   10   24 1
