@<TRIPOS>MOLECULE
glycerol
   14    13     0     0     0
SMALL
USER_CHARGES

@<TRIPOS>ATOM
      1 C1          0.9523    0.5385   -0.0326 C.3       1 MOL         0.0970
      2 C2          0.9856    0.2573   -2.5348 C.3       1 MOL         0.0970
      3 C3          1.1440    1.2331   -1.3744 C.3       1 MOL         0.1371
      4 O1          1.1387    1.4891    1.0107 O.3       1 MOL        -0.5934
      5 O2          1.1659    0.9422   -3.7700 O.3       1 MOL        -0.5934
      6 O3          2.4671    1.7733   -1.4064 O.3       1 MOL        -0.5817
      7 H1          1.6854   -0.2628    0.1078 H         1 MOL         0.0315
      8 H2         -0.0587    0.1293    0.0585 H         1 MOL         0.0315
      9 H3         -0.0085   -0.2005   -2.5434 H         1 MOL         0.0315
     10 H4          1.7391   -0.5353   -2.4895 H         1 MOL         0.0315
     11 H5          0.4552    2.0798   -1.4720 H         1 MOL         0.1140
     12 H6          1.0096    1.0133    1.8463 H         1 MOL         0.4020
     13 H7          1.0559    0.2819   -4.4722 H         1 MOL         0.4020
     14 H8          3.0699    1.0224   -1.3025 H         1 MOL         0.3937
@<TRIPOS>BOND
     1    1    3 1
     2    1    4 1
     3    2    3 1
     4    2    5 1
     5    3    6 1
     6    1    7 1
     7    1    8 1
     8    2    9 1
     9    2   10 1
    10    3   11 1
    11    4   12 1
    12    5   13 1
    13    6   14 1
