@<TRIPOS>MOLECULE
2-ethylpyridine
   17    17     0     0     0
SMALL
USER_CHARGES

@<TRIPOS>ATOM
      1 C1          1.3879   -0.0684    1.6522 C.ar      1 MOL        -0.0922
      2 C2          0.2265   -0.4197    0.9733 C.ar      1 MOL        -0.2528
      3 C3          1.6520   -0.6227    2.8997 C.ar      1 MOL        -0.2458
      4 C4         -0.6317   -1.3224    1.5803 C.ar      1 MOL         0.3988
      5 C5          0.7299   -1.5161    3.4206 C.ar      1 MOL         0.4117
      6 C6          1.7636   -3.4365    4.6575 C.3       1 MOL        -0.0904
      7 C7          0.9810   -2.1301    4.7574 C.3       1 MOL        -0.1321
      8 N1         -0.4092   -1.8816    2.7908 N.ar      1 MOL        -0.6669
      9 H1          2.0859    0.6359    1.2097 H         1 MOL         0.1361
     10 H2          0.0002   -0.0003   -0.0003 H         1 MOL         0.1424
     11 H3          2.5545   -0.3569    3.4396 H         1 MOL         0.1420
     12 H4         -1.5509   -1.6291    1.0922 H         1 MOL         0.0209
     13 H5          1.2429   -4.1590    4.0200 H         1 MOL         0.0388
     14 H6          1.8915   -3.8875    5.6466 H         1 MOL         0.0388
     15 H7          2.7581   -3.2673    4.2307 H         1 MOL         0.0388
     16 H8          1.5317   -1.4286    5.4040 H         1 MOL         0.0560
     17 H9          0.0283   -2.3194    5.2772 H         1 MOL         0.0560
@<TRIPOS>BOND
     1    1    2 ar
     2    1    3 ar
     3    2    4 ar
     4    3    5 ar
     5    4    8 ar
     6    5    7 1
     7    5    8 ar
     8    6    7 1
     9    1    9 1
    10    2   10 1
    11    3   11 1
    12    4   12 1
    13    6   13 1
    14    6   14 1
    15    6   15 1
    16    7   16 1
    17    7   17 1
