@<TRIPOS>MOLECULE
1-ethylnaphthalene
   24    25     0     0     0
SMALL
USER_CHARGES

@<TRIPOS>ATOM
      1 C1         -0.4966   -2.0341    0.4940 C.ar      1 MOL        -0.1294
      2 C2          0.3500   -1.0275    0.0392 C.ar      1 MOL        -0.1293
      3 C3          3.0228   -5.3167   -0.2210 C.ar      1 MOL        -0.1244
      4 C4         -0.0479   -3.3542    0.5448 C.ar      1 MOL        -0.1180
      5 C5          1.6484   -1.3369   -0.3665 C.ar      1 MOL        -0.1196
      6 C6          1.7243   -5.0072    0.1848 C.ar      1 MOL        -0.1219
      7 C7          3.8693   -4.3100   -0.6758 C.ar      1 MOL        -0.1299
      8 C8          1.2560   -3.6839    0.1403 C.ar      1 MOL        -0.0343
      9 C9          2.1168   -2.6602   -0.3222 C.ar      1 MOL        -0.0291
     10 C10         3.4207   -2.9899   -0.7267 C.ar      1 MOL        -0.0637
     11 C11         4.0817   -1.5368   -2.6601 C.3       1 MOL        -0.0926
     12 C12         4.3825   -1.9565   -1.2260 C.3       1 MOL        -0.0398
     13 H1         -1.5073   -1.7925    0.8097 H         1 MOL         0.1311
     14 H2         -0.0002   -0.0000    0.0001 H         1 MOL         0.1314
     15 H3          3.3726   -6.3442   -0.1818 H         1 MOL         0.1323
     16 H4         -0.7268   -4.1249    0.9038 H         1 MOL         0.1319
     17 H5          2.2793   -0.5228   -0.7155 H         1 MOL         0.1346
     18 H6          1.0800   -5.8102    0.5367 H         1 MOL         0.1313
     19 H7          4.8787   -4.5638   -0.9892 H         1 MOL         0.1310
     20 H8          4.0990   -2.3989   -3.3355 H         1 MOL         0.0377
     21 H9          4.8250   -0.8149   -3.0126 H         1 MOL         0.0377
     22 H10         3.0935   -1.0706   -2.7357 H         1 MOL         0.0377
     23 H11         4.3576   -1.0708   -0.5745 H         1 MOL         0.0478
     24 H12         5.4122   -2.3385   -1.1666 H         1 MOL         0.0478
@<TRIPOS>BOND
     1    1    2 ar
     2    1    4 ar
     3    2    5 ar
     4    3    6 ar
     5    3    7 ar
     6    4    8 ar
     7    5    9 ar
     8    6    8 ar
     9    7   10 ar
    10    8    9 ar
    11    9   10 ar
    12   10   12 1
    13   11   12 1
    14    1   13 1
    15    2   14 1
    16    3   15 1
    17    4   16 1
    18    5   17 1
    19    6   18 1
    20    7   19 1
    21   11   20 1
    22   11   21 1
    23   11   22 1
    24   12   23 1
    25   12   24 1
