@<TRIPOS>MOLECULE
nonan-2-one
   28    27     0     0     0
SMALL
USER_CHARGES

@<TRIPOS>ATOM
      1 C1         -0.4988   -3.7956   -2.0821 C.2       1 MOL         0.5600
      2 C2         -0.2693   -4.4774   -3.4053 C.3       1 MOL        -0.2008
      3 C3          1.0314    3.4608    2.8169 C.3       1 MOL        -0.0926
      4 C4          0.0735   -2.4039   -1.9021 C.3       1 MOL        -0.1764
      5 C5          0.4702    2.0581    2.6464 C.3       1 MOL        -0.0795
      6 C6         -0.1583   -1.8402   -0.5037 C.3       1 MOL        -0.0744
      7 C7          0.7224    1.5214    1.2377 C.3       1 MOL        -0.0784
      8 C8          0.4088   -0.4274   -0.3393 C.3       1 MOL        -0.0764
      9 C9          0.1862    0.0975    1.0805 C.3       1 MOL        -0.0779
     10 O1         -1.1166   -4.3538   -1.1752 O.2       1 MOL        -0.5357
     11 H1          0.6620   -5.0496   -3.3648 H         1 MOL         0.0636
     12 H2         -0.1943   -3.7318   -4.1999 H         1 MOL         0.0636
     13 H3         -1.0899   -5.1691   -3.6118 H         1 MOL         0.0636
     14 H4          0.5897    4.1508    2.0909 H         1 MOL         0.0324
     15 H5          2.1176    3.4679    2.6814 H         1 MOL         0.0324
     16 H6          0.8117    3.8374    3.8207 H         1 MOL         0.0324
     17 H7         -0.3678   -1.7452   -2.6592 H         1 MOL         0.0624
     18 H8          1.1473   -2.4538   -2.1156 H         1 MOL         0.0624
     19 H9          0.9317    1.3938    3.3863 H         1 MOL         0.0393
     20 H10        -0.6066    2.0742    2.8517 H         1 MOL         0.0393
     21 H11         0.3236   -2.5067    0.2220 H         1 MOL         0.0538
     22 H12        -1.2286   -1.8363   -0.2677 H         1 MOL         0.0538
     23 H13         0.2416    2.1784    0.5027 H         1 MOL         0.0384
     24 H14         1.7988    1.5341    1.0270 H         1 MOL         0.0384
     25 H15        -0.0677    0.2524   -1.0553 H         1 MOL         0.0367
     26 H16         1.4824   -0.4341   -0.5637 H         1 MOL         0.0367
     27 H17         0.6850   -0.5640    1.7993 H         1 MOL         0.0415
     28 H18        -0.8852    0.0806    1.3145 H         1 MOL         0.0415
@<TRIPOS>BOND
     1    1    2 1
     2    1    4 1
     3    1   10 2
     4    3    5 1
     5    4    6 1
     6    5    7 1
     7    6    8 1
     8    7    9 1
     9    8    9 1
    10    2   11 1
    11    2   12 1
    12    2   13 1
    13    3   14 1
    14    3   15 1
    15    3   16 1
    16    4   17 1
    17    4   18 1
    18    5   19 1
    19    5   20 1
    20    6   21 1
    21    6   22 1
    22    7   23 1
    23    7   24 1
    24    8   25 1
    25    8   26 1
    26    9   27 1
    27    9   28 1
