@<TRIPOS>MOLECULE
2-ethylphenol
   19    19     0     0     0
SMALL
USER_CHARGES

@<TRIPOS>ATOM
      1 C1          1.8851   -1.0363   -0.1124 C.ar      1 MOL        -0.1624
      2 C2          0.8066   -0.4630    0.5610 C.ar      1 MOL        -0.0964
      3 C3          2.9210   -1.6309    0.6081 C.ar      1 MOL        -0.0979
      4 C4          0.7638   -0.4841    1.9551 C.ar      1 MOL        -0.2114
      5 C5          2.8783   -1.6520    2.0022 C.ar      1 MOL        -0.0996
      6 C6          1.7997   -1.0786    2.6757 C.ar      1 MOL         0.1245
      7 C7          4.9487   -1.2657    3.3626 C.3       1 MOL        -0.0889
      8 C8          3.9959   -2.2923    2.7570 C.3       1 MOL        -0.0270
      9 O1          1.7429   -1.0900    4.0369 O.3       1 MOL        -0.4979
     10 H1          1.9192   -1.0196   -1.1981 H         1 MOL         0.1334
     11 H2          0.0007    0.0005   -0.0004 H         1 MOL         0.1307
     12 H3          3.7577   -2.0735    0.0741 H         1 MOL         0.1343
     13 H4         -0.0790   -0.0358    2.4741 H         1 MOL         0.1326
     14 H5          5.3639   -0.6103    2.5894 H         1 MOL         0.0368
     15 H6          5.7820   -1.7630    3.8687 H         1 MOL         0.0368
     16 H7          4.4337   -0.6358    4.0958 H         1 MOL         0.0368
     17 H8          3.5979   -2.9328    3.5597 H         1 MOL         0.0491
     18 H9          4.5643   -2.9680    2.0987 H         1 MOL         0.0491
     19 H10         0.9328   -0.6524    4.3420 H         1 MOL         0.4174
@<TRIPOS>BOND
     1    1    2 ar
     2    1    3 ar
     3    2    4 ar
     4    3    5 ar
     5    4    6 ar
     6    5    6 ar
     7    5    8 1
     8    6    9 1
     9    7    8 1
    10    1   10 1
    11    2   11 1
    12    3   12 1
    13    4   13 1
    14    7   14 1
    15    7   15 1
    16    7   16 1
    17    8   17 1
    18    8   18 1
    19    9   19 1
