@<TRIPOS>MOLECULE
2-propoxyethanol
   19    18     0     0     0
SMALL
USER_CHARGES

@<TRIPOS>ATOM
      1 C1         -0.0095   -0.6551    0.8768 C.3       1 MOL        -0.0926
      2 C2          1.2444   -0.4434    1.7060 C.3       1 MOL        -0.0855
      3 C3          1.2749   -1.3494    2.9273 C.3       1 MOL         0.1327
      4 C4          3.8457   -1.6035    5.5465 C.3       1 MOL         0.1284
      5 C5          2.5499   -1.9092    4.8204 C.3       1 MOL         0.1265
      6 O1          4.9400   -1.8943    4.6855 O.3       1 MOL        -0.6047
      7 O2          2.4629   -1.0899    3.6622 O.3       1 MOL        -0.4277
      8 H1         -0.0920   -1.6965    0.5497 H         1 MOL         0.0357
      9 H2         -0.8996   -0.4128    1.4659 H         1 MOL         0.0357
     10 H3         -0.0053   -0.0150   -0.0111 H         1 MOL         0.0357
     11 H4          1.3083    0.6043    2.0234 H         1 MOL         0.0532
     12 H5          2.1333   -0.6260    1.0902 H         1 MOL         0.0532
     13 H6          0.4147   -1.1588    3.5770 H         1 MOL         0.0269
     14 H7          1.2712   -2.4035    2.6320 H         1 MOL         0.0269
     15 H8          3.9478   -2.2175    6.4466 H         1 MOL         0.0360
     16 H9          3.8933   -0.5442    5.8153 H         1 MOL         0.0360
     17 H10         1.6829   -1.6969    5.4539 H         1 MOL         0.0398
     18 H11         2.5267   -2.9556    4.5025 H         1 MOL         0.0398
     19 H12         5.7480   -1.6876    5.1817 H         1 MOL         0.4041
@<TRIPOS>BOND
     1    1    2 1
     2    2    3 1
     3    3    7 1
     4    4    5 1
     5    4    6 1
     6    5    7 1
     7    1    8 1
     8    1    9 1
     9    1   10 1
    10    2   11 1
    11    2   12 1
    12    3   13 1
    13    3   14 1
    14    4   15 1
    15    4   16 1
    16    5   17 1
    17    5   18 1
    18    6   19 1
