@<TRIPOS>MOLECULE
3,5-dimethylpyridine
   17    17     0     0     0
SMALL
USER_CHARGES

@<TRIPOS>ATOM
      1 C1          1.3879   -0.0684    1.6522 C.ar      1 MOL        -0.1009
      2 C2         -0.6317   -1.3224    1.5803 C.ar      1 MOL         0.3882
      3 C3          0.7299   -1.5161    3.4206 C.ar      1 MOL         0.3882
      4 C4          0.2265   -0.4197    0.9733 C.ar      1 MOL        -0.1868
      5 C5          1.6520   -0.6227    2.8997 C.ar      1 MOL        -0.1868
      6 C6         -0.0853    0.1564   -0.3622 C.3       1 MOL        -0.0494
      7 C7          2.8845   -0.2657    3.6520 C.3       1 MOL        -0.0494
      8 N1         -0.4092   -1.8816    2.7908 N.ar      1 MOL        -0.6614
      9 H1          2.0875    0.6364    1.2092 H         1 MOL         0.1349
     10 H2         -1.5535   -1.6337    1.0981 H         1 MOL         0.0209
     11 H3          0.8820   -1.9804    4.3903 H         1 MOL         0.0209
     12 H4          0.3330   -0.4713   -1.1604 H         1 MOL         0.0469
     13 H5         -1.1696    0.2394   -0.5214 H         1 MOL         0.0469
     14 H6          0.3265    1.1700   -0.4691 H         1 MOL         0.0469
     15 H7          2.7040    0.6038    4.2982 H         1 MOL         0.0469
     16 H8          3.2266   -1.0986    4.2825 H         1 MOL         0.0469
     17 H9          3.7146   -0.0241    2.9730 H         1 MOL         0.0469
@<TRIPOS>BOND
     1    1    4 ar
     2    1    5 ar
     3    2    4 ar
     4    2    8 ar
     5    3    5 ar
     6    3    8 ar
     7    4    6 1
     8    5    7 1
     9    1    9 1
    10    2   10 1
    11    3   11 1
    12    6   12 1
    13    6   13 1
    14    6   14 1
    15    7   15 1
    16    7   16 1
    17    7   17 1
