@<TRIPOS>MOLECULE
2-chloro-N-(2,6-diethylphenyl)-N-(methoxymethyl)acetamide
   38    38     0     0     0
SMALL
USER_CHARGES

@<TRIPOS>ATOM
      1 C1          0.1917   -3.6888   -4.1283 C.ar      1 MOL        -0.1164
      2 C2         -0.8101   -2.7340   -3.9544 C.ar      1 MOL        -0.1351
      3 C3          1.3270   -3.6640   -3.3182 C.ar      1 MOL        -0.1351
      4 C4         -0.6766   -1.7542   -2.9705 C.ar      1 MOL        -0.0618
      5 C5          1.4606   -2.6842   -2.3344 C.ar      1 MOL        -0.0618
      6 C6          0.4588   -1.7293   -2.1605 C.ar      1 MOL         0.0225
      7 C7          0.1135   -0.9255    0.1749 C.2       1 MOL         0.6699
      8 C8         -1.7221    0.3319   -3.8880 C.3       1 MOL        -0.0895
      9 C9          3.9650   -2.5668   -2.3090 C.3       1 MOL        -0.0895
     10 C10         3.2429    1.7870   -0.9429 C.3       1 MOL         0.1220
     11 C11        -1.7668   -0.7448   -2.8084 C.3       1 MOL        -0.0487
     12 C12         2.6884   -2.6844   -1.4824 C.3       1 MOL        -0.0487
     13 C13        -0.6710   -2.2122    0.3735 C.3       1 MOL        -0.0488
     14 C14         1.3460    0.5078   -1.5006 C.3       1 MOL         0.2955
     15 N1          0.5978   -0.7115   -1.1389 N.am      1 MOL        -0.4049
     16 O1          0.2659   -0.1387    1.1121 O.2       1 MOL        -0.5697
     17 O2          2.4705    0.6353   -0.6334 O.3       1 MOL        -0.4423
     18 Cl1        -1.1822   -2.3859    2.0656 Cl        1 MOL        -0.1395
     19 H1          0.0877   -4.4519   -4.8941 H         1 MOL         0.1355
     20 H2         -1.6907   -2.7615   -4.5909 H         1 MOL         0.1376
     21 H3          2.1014   -4.4129   -3.4616 H         1 MOL         0.1376
     22 H4         -0.7543    0.8446   -3.8930 H         1 MOL         0.0358
     23 H5         -2.5018    1.0810   -3.7179 H         1 MOL         0.0358
     24 H6         -1.8784   -0.1006   -4.8821 H         1 MOL         0.0358
     25 H7          4.0353   -3.3772   -3.0424 H         1 MOL         0.0358
     26 H8          4.8478   -2.6158   -1.6639 H         1 MOL         0.0358
     27 H9          3.9951   -1.6170   -2.8537 H         1 MOL         0.0358
     28 H10         4.0932    1.8508   -0.2595 H         1 MOL         0.0351
     29 H11         2.6199    2.6802   -0.8508 H         1 MOL         0.0351
     30 H12         3.6086    1.7045   -1.9691 H         1 MOL         0.0351
     31 H13        -2.7500   -1.2391   -2.8305 H         1 MOL         0.0607
     32 H14        -1.7002   -0.2679   -1.8184 H         1 MOL         0.0607
     33 H15         2.6491   -1.8572   -0.7573 H         1 MOL         0.0607
     34 H16         2.7321   -3.6031   -0.8774 H         1 MOL         0.0607
     35 H17        -0.0430   -3.0742    0.1356 H         1 MOL         0.0947
     36 H18        -1.5755   -2.2103   -0.2390 H         1 MOL         0.0947
     37 H19         0.7073    1.3894   -1.3993 H         1 MOL         0.0595
     38 H20         1.6578    0.4681   -2.5512 H         1 MOL         0.0595
@<TRIPOS>BOND
     1    1    2 ar
     2    1    3 ar
     3    2    4 ar
     4    3    5 ar
     5    4    6 ar
     6    4   11 1
     7    5    6 ar
     8    5   12 1
     9    6   15 1
    10    7   13 1
    11    7   15 am
    12    7   16 2
    13    8   11 1
    14    9   12 1
    15   10   17 1
    16   13   18 1
    17   14   15 1
    18   14   17 1
    19    1   19 1
    20    2   20 1
    21    3   21 1
    22    8   22 1
    23    8   23 1
    24    8   24 1
    25    9   25 1
    26    9   26 1
    27    9   27 1
    28   10   28 1
    29   10   29 1
    30   10   30 1
    31   11   31 1
    32   11   32 1
    33   12   33 1
    34   12   34 1
    35   13   35 1
    36   13   36 1
    37   14   37 1
    38   14   38 1
