@<TRIPOS>MOLECULE
isobutyl acetate
   20    19     0     0     0
SMALL
USER_CHARGES

@<TRIPOS>ATOM
      1 C1          2.9553    2.5470    2.0634 C.2       1 MOL         0.6438
      2 C2          3.7244    1.9940    3.2248 C.3       1 MOL        -0.1687
      3 C3          1.0495   -0.3816   -0.2534 C.3       1 MOL        -0.0897
      4 C4          1.1039    1.1686   -2.2261 C.3       1 MOL        -0.0897
      5 C5          1.9991    1.9493   -0.0132 C.3       1 MOL         0.1482
      6 C6          1.8182    0.7470   -0.9439 C.3       1 MOL        -0.0984
      7 O1          2.5971    3.7134    1.9718 O.2       1 MOL        -0.4932
      8 O2          2.7244    1.5597    1.1457 O.3       1 MOL        -0.4760
      9 H1          3.0325    1.6234    3.9851 H         1 MOL         0.0751
     10 H2          4.3757    2.7671    3.6402 H         1 MOL         0.0751
     11 H3          4.3467    1.1614    2.8841 H         1 MOL         0.0751
     12 H4          0.0462   -0.0483    0.0327 H         1 MOL         0.0381
     13 H5          1.5657   -0.7163    0.6529 H         1 MOL         0.0381
     14 H6          0.9340   -1.2452   -0.9165 H         1 MOL         0.0381
     15 H7          0.1076    1.5654   -2.0043 H         1 MOL         0.0381
     16 H8          0.9803    0.3150   -2.9009 H         1 MOL         0.0381
     17 H9          1.6660    1.9434   -2.7588 H         1 MOL         0.0381
     18 H10         2.5635    2.7424   -0.5149 H         1 MOL         0.0624
     19 H11         1.0314    2.3549    0.3013 H         1 MOL         0.0624
     20 H12         2.8097    0.3560   -1.2057 H         1 MOL         0.0448
@<TRIPOS>BOND
     1    1    2 1
     2    1    7 2
     3    1    8 1
     4    3    6 1
     5    4    6 1
     6    5    6 1
     7    5    8 1
     8    2    9 1
     9    2   10 1
    10    2   11 1
    11    3   12 1
    12    3   13 1
    13    3   14 1
    14    4   15 1
    15    4   16 1
    16    4   17 1
    17    5   18 1
    18    5   19 1
    19    6   20 1
