@<TRIPOS>MOLECULE
[(1R)-1,2,2-trifluoroethoxy]benzene
   19    19     0     0     0
SMALL
USER_CHARGES

@<TRIPOS>ATOM
      1 C1          1.8851   -1.0363   -0.1124 C.ar      1 MOL        -0.1346
      2 C2          0.8066   -0.4630    0.5610 C.ar      1 MOL        -0.1133
      3 C3          2.9210   -1.6309    0.6081 C.ar      1 MOL        -0.1133
      4 C4          0.7638   -0.4841    1.9551 C.ar      1 MOL        -0.1405
      5 C5          2.8783   -1.6520    2.0022 C.ar      1 MOL        -0.1405
      6 C6          1.7997   -1.0786    2.6757 C.ar      1 MOL         0.0963
      7 C7          0.4772   -1.1308    4.6639 C.3       1 MOL         0.3182
      8 C8          0.6002   -1.8291    5.9981 C.3       1 MOL         0.3889
      9 O1          1.7593   -1.0981    4.0359 O.3       1 MOL        -0.3589
     10 F1          0.0696    0.1471    4.8896 F         1 MOL        -0.2279
     11 F2         -0.6006   -1.8278    6.6255 F         1 MOL        -0.2294
     12 F3          1.4610   -1.1450    6.7929 F         1 MOL        -0.2294
     13 H1          1.9184   -1.0206   -1.1979 H         1 MOL         0.1372
     14 H2         -0.0001    0.0001    0.0001 H         1 MOL         0.1370
     15 H3          3.7605   -2.0773    0.0830 H         1 MOL         0.1370
     16 H4         -0.0785   -0.0345    2.4737 H         1 MOL         0.1459
     17 H5          3.6889   -2.1149    2.5584 H         1 MOL         0.1459
     18 H6         -0.2665   -1.6451    4.0446 H         1 MOL         0.0849
     19 H7          0.9586   -2.8580    5.9046 H         1 MOL         0.0966
@<TRIPOS>BOND
     1    1    2 ar
     2    1    3 ar
     3    2    4 ar
     4    3    5 ar
     5    4    6 ar
     6    5    6 ar
     7    6    9 1
     8    7    8 1
     9    7    9 1
    10    7   10 1
    11    8   11 1
    12    8   12 1
    13    1   13 1
    14    2   14 1
    15    3   15 1
    16    4   16 1
    17    5   17 1
    18    7   18 1
    19    8   19 1
