@<TRIPOS>MOLECULE
1-iodopropane
   11    10     0     0     0
SMALL
USER_CHARGES

@<TRIPOS>ATOM
      1 C1         -0.5092   -0.5493    0.7984 C.3       1 MOL        -0.0951
      2 C2          0.3041   -0.5215    2.0835 C.3       1 MOL        -0.0772
      3 C3          1.6753   -1.1640    1.8863 C.3       1 MOL         0.0696
      4 I1          2.7878   -1.1442    3.7119 I         1 MOL        -0.2547
      5 H1          0.0278   -0.0296   -0.0013 H         1 MOL         0.0369
      6 H2         -0.6918   -1.5781    0.4720 H         1 MOL         0.0369
      7 H3         -1.4762   -0.0549    0.9352 H         1 MOL         0.0369
      8 H4         -0.2530   -1.0471    2.8685 H         1 MOL         0.0520
      9 H5          0.4154    0.5191    2.4115 H         1 MOL         0.0520
     10 H6          2.2354   -0.6248    1.1142 H         1 MOL         0.0713
     11 H7          1.5599   -2.1982    1.5429 H         1 MOL         0.0713
@<TRIPOS>BOND
     1    1    2 1
     2    2    3 1
     3    3    4 1
     4    1    5 1
     5    1    6 1
     6    1    7 1
     7    2    8 1
     8    2    9 1
     9    3   10 1
    10    3   11 1
