@<TRIPOS>MOLECULE
N-ethylethanamine
   16    15     0     0     0
SMALL
USER_CHARGES

@<TRIPOS>ATOM
      1 C1          1.5828   -1.2394    2.8915 C.3       1 MOL        -0.0953
      2 C2          3.1009   -1.3004   -1.7161 C.3       1 MOL        -0.0953
      3 C3          1.2109   -0.9764    1.4719 C.3       1 MOL         0.1672
      4 C4          1.9593   -0.9912   -0.8085 C.3       1 MOL         0.1672
      5 N1          2.3152   -1.2363    0.5901 N.3       1 MOL        -0.8308
      6 H1          1.8780   -2.2851    3.0308 H         1 MOL         0.0385
      7 H2          2.4043   -0.5872    3.2070 H         1 MOL         0.0385
      8 H3          0.7235   -1.0413    3.5433 H         1 MOL         0.0385
      9 H4          3.9680   -0.6736   -1.4810 H         1 MOL         0.0385
     10 H5          3.3863   -2.3552   -1.6388 H         1 MOL         0.0385
     11 H6          2.8130   -1.1027   -2.7556 H         1 MOL         0.0385
     12 H7          0.9172    0.0693    1.3399 H         1 MOL         0.0247
     13 H8          0.3800   -1.6175    1.1633 H         1 MOL         0.0247
     14 H9          1.0971   -1.6205   -1.0488 H         1 MOL         0.0247
     15 H10         1.6654    0.0587   -0.8985 H         1 MOL         0.0247
     16 H11         3.1109   -0.6341    0.8301 H         1 MOL         0.3571
@<TRIPOS>BOND
     1    1    3 1
     2    2    4 1
     3    3    5 1
     4    4    5 1
     5    1    6 1
     6    1    7 1
     7    1    8 1
     8    2    9 1
     9    2   10 1
    10    2   11 1
    11    3   12 1
    12    3   13 1
    13    4   14 1
    14    4   15 1
    15    5   16 1
