@<TRIPOS>MOLECULE
N-butyl-N-ethyl-2,6-dinitro-4-(trifluoromethyl)aniline
   39    39     0     0     0
SMALL
USER_CHARGES

@<TRIPOS>ATOM
      1 C1          1.5363    5.6361    2.1214 C.ar      1 MOL        -0.0163
      2 C2         -0.0299    7.0995    3.2360 C.ar      1 MOL        -0.0163
      3 C3          1.1670    6.9129    2.5445 C.ar      1 MOL        -0.1731
      4 C4         -0.4883    4.7324    3.0814 C.ar      1 MOL         0.2984
      5 C5          0.7086    4.5458    2.3898 C.ar      1 MOL        -0.1750
      6 C6         -0.8575    6.0092    3.5045 C.ar      1 MOL        -0.1750
      7 C7         -2.9446    0.0486    0.2970 C.3       1 MOL        -0.0981
      8 C8         -2.3695    2.9351    5.4423 C.3       1 MOL        -0.1246
      9 C9         -3.2280    1.4200    0.8900 C.3       1 MOL        -0.0757
     10 C10        -2.1367    1.8377    1.8783 C.3       1 MOL        -0.1080
     11 C11        -1.1428    2.8790    4.5969 C.3       1 MOL         0.2372
     12 C12        -2.3629    3.2356    2.4445 C.3       1 MOL         0.2362
     13 C13         2.0523    8.0786    2.2583 C.3       1 MOL         0.6943
     14 N1         -1.3228    3.6343    3.3520 N.pl3     1 MOL        -0.7867
     15 N2          1.1109    3.2548    1.9451 N.pl3     1 MOL         0.3198
     16 N3         -2.0725    6.2307    4.2124 N.pl3     1 MOL         0.3198
     17 O1          1.8052    2.5423    2.7069 O.3       1 MOL        -0.1784
     18 O2         -3.1125    6.4880    3.5625 O.3       1 MOL        -0.1784
     19 O3          0.7580    2.8708    0.8057 O.2       1 MOL        -0.1784
     20 O4         -2.0644    6.1613    5.4635 O.2       1 MOL        -0.1784
     21 F1          3.1888    7.7485    1.5762 F         1 MOL        -0.2248
     22 F2          1.4535    9.0477    1.5046 F         1 MOL        -0.2248
     23 F3          2.4761    8.7072    3.3933 F         1 MOL        -0.2248
     24 H1          2.4716    5.4960    1.5834 H         1 MOL         0.1833
     25 H2         -0.3126    8.0979    3.5628 H         1 MOL         0.1833
     26 H3         -2.8699   -0.7104    1.0824 H         1 MOL         0.0364
     27 H4         -3.7507   -0.2441   -0.3830 H         1 MOL         0.0364
     28 H5         -2.0074    0.0515   -0.2687 H         1 MOL         0.0364
     29 H6         -2.6096    3.9686    5.7145 H         1 MOL         0.0500
     30 H7         -3.2240    2.4915    4.9199 H         1 MOL         0.0500
     31 H8         -2.2083    2.3705    6.3684 H         1 MOL         0.0500
     32 H9         -3.2964    2.1545    0.0792 H         1 MOL         0.0426
     33 H10        -4.2029    1.3956    1.3897 H         1 MOL         0.0426
     34 H11        -2.0842    1.1096    2.6972 H         1 MOL         0.0538
     35 H12        -1.1656    1.8211    1.3686 H         1 MOL         0.0538
     36 H13        -0.9088    1.8443    4.3288 H         1 MOL         0.0512
     37 H14        -0.2869    3.3081    5.1261 H         1 MOL         0.0512
     38 H15        -3.3164    3.2987    2.9782 H         1 MOL         0.0548
     39 H16        -2.3775    3.9700    1.6329 H         1 MOL         0.0548
@<TRIPOS>BOND
     1    1    3 ar
     2    1    5 ar
     3    2    3 ar
     4    2    6 ar
     5    3   13 1
     6    4    5 ar
     7    4    6 ar
     8    4   14 1
     9    5   15 1
    10    6   16 1
    11    7    9 1
    12    8   11 1
    13    9   10 1
    14   10   12 1
    15   11   14 1
    16   12   14 1
    17   13   21 1
    18   13   22 1
    19   13   23 1
    20   15   17 1
    21   15   19 2
    22   16   18 1
    23   16   20 2
    24    1   24 1
    25    2   25 1
    26    7   26 1
    27    7   27 1
    28    7   28 1
    29    8   29 1
    30    8   30 1
    31    8   31 1
    32    9   32 1
    33    9   33 1
    34   10   34 1
    35   10   35 1
    36   11   36 1
    37   11   37 1
    38   12   38 1
    39   12   39 1
