@<TRIPOS>MOLECULE
cyclopentanone
   14    14     0     0     0
SMALL
USER_CHARGES

@<TRIPOS>ATOM
      1 C1         -0.7497    0.1232   -0.3013 C.2       1 MOL         0.5698
      2 C2          0.3277    1.1760   -0.2732 C.3       1 MOL        -0.1901
      3 C3         -0.2859   -1.1830    0.2893 C.3       1 MOL        -0.1901
      4 C4          1.5583    0.3514    0.0824 C.3       1 MOL        -0.0817
      5 C5          1.0223   -0.7754    0.9550 C.3       1 MOL        -0.0817
      6 O1         -1.8728    0.3078   -0.7522 O.2       1 MOL        -0.5278
      7 H1          0.4326    1.6652   -1.2438 H         1 MOL         0.0762
      8 H2          0.0940    1.9036    0.5091 H         1 MOL         0.0762
      9 H3         -1.0061   -1.5725    1.0117 H         1 MOL         0.0762
     10 H4         -0.1172   -1.8996   -0.5195 H         1 MOL         0.0762
     11 H5          2.0086   -0.0642   -0.8272 H         1 MOL         0.0492
     12 H6          2.3196    0.9479    0.5934 H         1 MOL         0.0492
     13 H7          0.8287   -0.4017    1.9683 H         1 MOL         0.0492
     14 H8          1.7230   -1.6120    1.0320 H         1 MOL         0.0492
@<TRIPOS>BOND
     1    1    2 1
     2    1    3 1
     3    1    6 2
     4    2    4 1
     5    3    5 1
     6    4    5 1
     7    2    7 1
     8    2    8 1
     9    3    9 1
    10    3   10 1
    11    4   11 1
    12    4   12 1
    13    5   13 1
    14    5   14 1
