@<TRIPOS>MOLECULE
2,3-dichlorodibenzo-p-dioxin
   22    24     0     0     0
SMALL
USER_CHARGES

@<TRIPOS>ATOM
      1 C1         -1.8584    0.7400    0.8000 C.ar      1 MOL        -0.1249
      2 C2         -1.0039   -0.2568    0.3257 C.ar      1 MOL        -0.1248
      3 C3         -3.1487    0.4152    1.2196 C.ar      1 MOL        -0.1130
      4 C4         -1.4367   -1.5819    0.2693 C.ar      1 MOL        -0.1130
      5 C5         -6.5287   -2.8214    1.9320 C.ar      1 MOL        -0.1095
      6 C6         -4.8168   -4.8184    0.9815 C.ar      1 MOL        -0.1095
      7 C7         -3.5799   -0.9097    1.1626 C.ar      1 MOL         0.0606
      8 C8         -2.7266   -1.9051    0.6889 C.ar      1 MOL         0.0606
      9 C9         -5.2389   -2.4982    1.5123 C.ar      1 MOL         0.0737
     10 C10        -4.3856   -3.4936    1.0385 C.ar      1 MOL         0.0737
     11 C11        -6.9616   -4.1465    1.8755 C.ar      1 MOL         0.0188
     12 C12        -6.1071   -5.1433    1.4010 C.ar      1 MOL         0.0188
     13 O1         -4.8561   -1.1828    1.5855 O.3       1 MOL        -0.2192
     14 O2         -3.1093   -3.2205    0.6157 O.3       1 MOL        -0.2192
     15 Cl1        -8.5703   -4.4909    2.4081 Cl        1 MOL        -0.0584
     16 Cl2        -6.5907   -6.8007    1.3099 Cl        1 MOL        -0.0584
     17 H1         -1.5175    1.7705    0.8440 H         1 MOL         0.1421
     18 H2          0.0006   -0.0002    0.0020 H         1 MOL         0.1421
     19 H3         -3.8078    1.1957    1.5887 H         1 MOL         0.1568
     20 H4         -0.7659   -2.3524   -0.0999 H         1 MOL         0.1568
     21 H5         -7.1869   -2.0377    2.2996 H         1 MOL         0.1732
     22 H6         -4.1427   -5.5871    0.6108 H         1 MOL         0.1732
@<TRIPOS>BOND
     1    1    2 ar
     2    1    3 ar
     3    2    4 ar
     4    3    7 ar
     5    4    8 ar
     6    5    9 ar
     7    5   11 ar
     8    6   10 ar
     9    6   12 ar
    10    7    8 ar
    11    7   13 1
    12    8   14 1
    13    9   10 ar
    14    9   13 1
    15   10   14 1
    16   11   12 ar
    17   11   15 1
    18   12   16 1
    19    1   17 1
    20    2   18 1
    21    3   19 1
    22    4   20 1
    23    5   21 1
    24    6   22 1
