@<TRIPOS>MOLECULE
propane
   11    10     0     0     0
SMALL
USER_CHARGES

@<TRIPOS>ATOM
      1 C1         -0.5532   -0.2786    0.9029 C.3       1 MOL        -0.0926
      2 C2          1.1307    0.8191    2.3889 C.3       1 MOL        -0.0926
      3 C3          0.3849   -0.4425    2.0870 C.3       1 MOL        -0.0808
      4 H1         -0.0029    0.0213    0.0052 H         1 MOL         0.0320
      5 H2         -1.0709   -1.2172    0.6798 H         1 MOL         0.0320
      6 H3         -1.3062    0.4865    1.1149 H         1 MOL         0.0320
      7 H4          1.7106    1.1284    1.5113 H         1 MOL         0.0320
      8 H5          1.8273    0.6691    3.2205 H         1 MOL         0.0320
      9 H6          0.4377    1.6289    2.6406 H         1 MOL         0.0320
     10 H7         -0.1907   -0.7423    2.9698 H         1 MOL         0.0371
     11 H8          1.1014   -1.2443    1.8766 H         1 MOL         0.0371
@<TRIPOS>BOND
     1    1    3 1
     2    2    3 1
     3    1    4 1
     4    1    5 1
     5    1    6 1
     6    2    7 1
     7    2    8 1
     8    2    9 1
     9    3   10 1
    10    3   11 1
