@<TRIPOS>MOLECULE
prop-1-yne
    7     6     0     0     0
SMALL
USER_CHARGES

@<TRIPOS>ATOM
      1 C1         -0.5942    3.0237   -0.9302 C.1       1 MOL        -0.1638
      2 C2         -0.6484    1.8276   -0.8449 C.1       1 MOL        -0.1409
      3 C3         -0.7150    0.3705   -0.7408 C.3       1 MOL        -0.0216
      4 H1         -0.5459    4.0849   -1.0060 H         1 MOL         0.1633
      5 H2          0.2427   -0.0835   -1.0131 H         1 MOL         0.0544
      6 H3         -0.9575    0.0639    0.2811 H         1 MOL         0.0544
      7 H4         -1.4831   -0.0329   -1.4075 H         1 MOL         0.0544
@<TRIPOS>BOND
     1    1    2 3
     2    2    3 1
     3    1    4 1
     4    3    5 1
     5    3    6 1
     6    3    7 1
