@<TRIPOS>MOLECULE
2-chloro-1,1,1-trifluoro-ethane
    8     7     0     0     0
SMALL
USER_CHARGES

@<TRIPOS>ATOM
      1 C1         -0.0165    0.7148   -0.2710 C.3       1 MOL        -0.0289
      2 C2          0.0300   -0.7407    0.1200 C.3       1 MOL         0.6248
      3 F1          1.0669   -1.0003    0.9443 F         1 MOL        -0.2296
      4 F2          0.1408   -1.5417   -0.9608 F         1 MOL        -0.2296
      5 F3         -1.1036   -1.0885    0.7699 F         1 MOL        -0.2296
      6 Cl1        -0.1864    1.7495    1.1631 Cl        1 MOL        -0.1137
      7 H1          0.9014    1.0065   -0.7887 H         1 MOL         0.1034
      8 H2         -0.8665    0.9120   -0.9300 H         1 MOL         0.1034
@<TRIPOS>BOND
     1    1    2 1
     2    1    6 1
     3    2    3 1
     4    2    4 1
     5    2    5 1
     6    1    7 1
     7    1    8 1
