@<TRIPOS>MOLECULE
3-chlorophenol
   13    13     0     0     0
SMALL
USER_CHARGES

@<TRIPOS>ATOM
      1 C1          1.8851   -1.0363   -0.1124 C.ar      1 MOL        -0.0822
      2 C2          0.8066   -0.4630    0.5610 C.ar      1 MOL        -0.2158
      3 C3          2.9210   -1.6309    0.6081 C.ar      1 MOL        -0.1608
      4 C4          1.7997   -1.0786    2.6757 C.ar      1 MOL        -0.1524
      5 C5          0.7638   -0.4841    1.9551 C.ar      1 MOL         0.1337
      6 C6          2.8783   -1.6520    2.0022 C.ar      1 MOL         0.0492
      7 O1         -0.2892    0.0742    2.6122 O.3       1 MOL        -0.4933
      8 Cl1         4.1566   -2.3860    2.8899 Cl        1 MOL        -0.0900
      9 H1          1.9179   -1.0201   -1.1979 H         1 MOL         0.1403
     10 H2          0.0026   -0.0012   -0.0056 H         1 MOL         0.1350
     11 H3          3.7555   -2.0732    0.0700 H         1 MOL         0.1490
     12 H4          1.7590   -1.0905    3.7624 H         1 MOL         0.1655
     13 H5         -0.9240    0.4437    1.9778 H         1 MOL         0.4218
@<TRIPOS>BOND
     1    1    2 ar
     2    1    3 ar
     3    2    5 ar
     4    3    6 ar
     5    4    5 ar
     6    4    6 ar
     7    5    7 1
     8    6    8 1
     9    1    9 1
    10    2   10 1
    11    3   11 1
    12    4   12 1
    13    7   13 1
