@<TRIPOS>MOLECULE
9,10-dihydroanthracene
   26    28     0     0     0
SMALL
USER_CHARGES

@<TRIPOS>ATOM
      1 C1          2.0529   -0.1065   -0.6362 C.ar      1 MOL        -0.1292
      2 C2          0.7015    0.1770   -0.8101 C.ar      1 MOL        -0.1290
      3 C3          3.5505    3.0748   -7.0951 C.ar      1 MOL        -0.1290
      4 C4          2.1990    3.3583   -7.2686 C.ar      1 MOL        -0.1290
      5 C5          2.9505    0.1148   -1.6801 C.ar      1 MOL        -0.1289
      6 C6          0.2472    0.6817   -2.0280 C.ar      1 MOL        -0.1289
      7 C7          3.9612    2.2617   -6.0393 C.ar      1 MOL        -0.1289
      8 C8          1.2578    2.8285   -6.3867 C.ar      1 MOL        -0.1289
      9 C9          2.5064    0.6334   -2.9059 C.ar      1 MOL        -0.0681
     10 C10         1.1431    0.9191   -3.0814 C.ar      1 MOL        -0.0681
     11 C11         3.0241    1.7329   -5.1387 C.ar      1 MOL        -0.0681
     12 C12         1.6607    2.0186   -5.3141 C.ar      1 MOL        -0.0681
     13 C13         3.4951    0.8294   -4.0273 C.3       1 MOL         0.0090
     14 C14         0.6168    1.4315   -4.3981 C.3       1 MOL         0.0090
     15 H1          2.4077   -0.5052    0.3096 H         1 MOL         0.1318
     16 H2         -0.0000   -0.0003   -0.0001 H         1 MOL         0.1318
     17 H3          4.2845    3.4815   -7.7846 H         1 MOL         0.1318
     18 H4          1.8768    3.9868   -8.0937 H         1 MOL         0.1318
     19 H5          4.0017   -0.1215   -1.5342 H         1 MOL         0.1290
     20 H6         -0.8131    0.8881   -2.1536 H         1 MOL         0.1290
     21 H7          5.0192    2.0394   -5.9219 H         1 MOL         0.1290
     22 H8          0.2045    3.0490   -6.5408 H         1 MOL         0.1290
     23 H9          4.4141    1.2551   -3.6046 H         1 MOL         0.0608
     24 H10         3.7345   -0.1520   -4.4553 H         1 MOL         0.0608
     25 H11         0.1226    0.6034   -4.9210 H         1 MOL         0.0608
     26 H12        -0.1331    2.2061   -4.1905 H         1 MOL         0.0608
@<TRIPOS>BOND
     1    1    2 ar
     2    1    5 ar
     3    2    6 ar
     4    3    4 ar
     5    3    7 ar
     6    4    8 ar
     7    5    9 ar
     8    6   10 ar
     9    7   11 ar
    10    8   12 ar
    11    9   10 ar
    12    9   13 1
    13   10   14 1
    14   11   12 ar
    15   11   13 1
    16   12   14 1
    17    1   15 1
    18    2   16 1
    19    3   17 1
    20    4   18 1
    21    5   19 1
    22    6   20 1
    23    7   21 1
    24    8   22 1
    25   13   23 1
    26   13   24 1
    27   14   25 1
    28   14   26 1
