@<TRIPOS>MOLECULE
2-methylpentane
   20    19     0     0     0
SMALL
USER_CHARGES

@<TRIPOS>ATOM
      1 C1          0.8222   -0.2572   -0.6038 C.3       1 MOL        -0.0923
      2 C2          2.2230    2.3984   -3.8121 C.3       1 MOL        -0.0906
      3 C3          0.8472    4.2720   -2.8863 C.3       1 MOL        -0.0906
      4 C4          0.8430    0.4612   -1.9447 C.3       1 MOL        -0.0811
      5 C5          0.8300    1.9809   -1.7632 C.3       1 MOL        -0.0736
      6 C6          0.9223    2.7580   -3.0895 C.3       1 MOL        -0.0665
      7 H1         -0.0619    0.0224   -0.0220 H         1 MOL         0.0321
      8 H2          0.8147   -1.3432   -0.7412 H         1 MOL         0.0321
      9 H3          1.7096    0.0054   -0.0195 H         1 MOL         0.0321
     10 H4          3.0935    2.6799   -3.2102 H         1 MOL         0.0329
     11 H5          2.2969    2.9119   -4.7769 H         1 MOL         0.0329
     12 H6          2.2811    1.3204   -3.9964 H         1 MOL         0.0329
     13 H7          1.6629    4.6278   -2.2478 H         1 MOL         0.0329
     14 H8          0.9162    4.7962   -3.8457 H         1 MOL         0.0329
     15 H9         -0.1006    4.5660   -2.4256 H         1 MOL         0.0329
     16 H10         1.7384    0.1594   -2.5000 H         1 MOL         0.0387
     17 H11        -0.0273    0.1387   -2.5258 H         1 MOL         0.0387
     18 H12        -0.0790    2.2753   -1.2230 H         1 MOL         0.0391
     19 H13         1.6784    2.2658   -1.1276 H         1 MOL         0.0391
     20 H14         0.0863    2.4562   -3.7332 H         1 MOL         0.0457
@<TRIPOS>BOND
     1    1    4 1
     2    2    6 1
     3    3    6 1
     4    4    5 1
     5    5    6 1
     6    1    7 1
     7    1    8 1
     8    1    9 1
     9    2   10 1
    10    2   11 1
    11    2   12 1
    12    3   13 1
    13    3   14 1
    14    3   15 1
    15    4   16 1
    16    4   17 1
    17    5   18 1
    18    5   19 1
    19    6   20 1
