@<TRIPOS>MOLECULE
3,4-dimethylpyridine
   17    17     0     0     0
SMALL
USER_CHARGES

@<TRIPOS>ATOM
      1 C1          0.2265   -0.4197    0.9733 C.ar      1 MOL        -0.2457
      2 C2         -0.6317   -1.3224    1.5803 C.ar      1 MOL         0.3899
      3 C3          0.7299   -1.5161    3.4206 C.ar      1 MOL         0.3947
      4 C4          1.3879   -0.0684    1.6522 C.ar      1 MOL        -0.0404
      5 C5          1.6520   -0.6227    2.8997 C.ar      1 MOL        -0.1923
      6 C6          2.3327    0.9026    1.0254 C.3       1 MOL        -0.0614
      7 C7          2.8800   -0.2801    3.6700 C.3       1 MOL        -0.0499
      8 N1         -0.4092   -1.8816    2.7908 N.ar      1 MOL        -0.6655
      9 H1         -0.0080   -0.0054   -0.0013 H         1 MOL         0.1417
     10 H2         -1.5510   -1.6289    1.0924 H         1 MOL         0.0201
     11 H3          0.8804   -1.9813    4.3900 H         1 MOL         0.0205
     12 H4          2.0744    1.9274    1.3174 H         1 MOL         0.0496
     13 H5          3.3676    0.7031    1.3305 H         1 MOL         0.0496
     14 H6          2.3043    0.8339   -0.0694 H         1 MOL         0.0496
     15 H7          3.6958   -0.9697    3.4183 H         1 MOL         0.0466
     16 H8          3.2139    0.7443    3.4562 H         1 MOL         0.0466
     17 H9          2.7017   -0.3347    4.7526 H         1 MOL         0.0466
@<TRIPOS>BOND
     1    1    2 ar
     2    1    4 ar
     3    2    8 ar
     4    3    5 ar
     5    3    8 ar
     6    4    5 ar
     7    4    6 1
     8    5    7 1
     9    1    9 1
    10    2   10 1
    11    3   11 1
    12    6   12 1
    13    6   13 1
    14    6   14 1
    15    7   15 1
    16    7   16 1
    17    7   17 1
