@<TRIPOS>MOLECULE
1,1,1-trimethoxyethane
   20    19     0     0     0
SMALL
USER_CHARGES

@<TRIPOS>ATOM
      1 C1          0.1455    0.0969    1.0817 C.3       1 MOL        -0.1492
      2 C2          1.6591   -3.1800    1.8405 C.3       1 MOL         0.1349
      3 C3          0.6384   -0.6535    3.8916 C.3       1 MOL         0.1349
      4 C4          3.2139    0.4630    0.8887 C.3       1 MOL         0.1349
      5 C5          1.2767   -0.8256    1.5627 C.3       1 MOL         0.5277
      6 O1          0.7476   -2.1652    1.4376 O.3       1 MOL        -0.4364
      7 O2          1.6624   -0.5239    2.9156 O.3       1 MOL        -0.4364
      8 O3          2.3997   -0.6802    0.6665 O.3       1 MOL        -0.4364
      9 H1          0.4341    1.1516    1.1317 H         1 MOL         0.0587
     10 H2         -0.1296   -0.1346    0.0466 H         1 MOL         0.0587
     11 H3         -0.7581   -0.0264    1.6890 H         1 MOL         0.0587
     12 H4          1.1916   -4.1601    1.7185 H         1 MOL         0.0389
     13 H5          1.9391   -3.0256    2.8856 H         1 MOL         0.0389
     14 H6          2.5525   -3.1245    1.2140 H         1 MOL         0.0389
     15 H7          1.0389   -0.4019    4.8767 H         1 MOL         0.0389
     16 H8          0.2610   -1.6793    3.8911 H         1 MOL         0.0389
     17 H9         -0.1759    0.0322    3.6458 H         1 MOL         0.0389
     18 H10         4.0293    0.4774    0.1614 H         1 MOL         0.0389
     19 H11         3.6174    0.4322    1.9039 H         1 MOL         0.0389
     20 H12         2.6050    1.3620    0.7679 H         1 MOL         0.0389
@<TRIPOS>BOND
     1    1    5 1
     2    2    6 1
     3    3    7 1
     4    4    8 1
     5    5    6 1
     6    5    7 1
     7    5    8 1
     8    1    9 1
     9    1   10 1
    10    1   11 1
    11    2   12 1
    12    2   13 1
    13    2   14 1
    14    3   15 1
    15    3   16 1
    16    3   17 1
    17    4   18 1
    18    4   19 1
    19    4   20 1
