@<TRIPOS>MOLECULE
1-methyl-3-nitro-benzene
   17    17     0     0     0
SMALL
USER_CHARGES

@<TRIPOS>ATOM
      1 C1          1.8851   -1.0363   -0.1124 C.ar      1 MOL        -0.1363
      2 C2          0.8066   -0.4630    0.5610 C.ar      1 MOL        -0.0915
      3 C3          2.9210   -1.6309    0.6081 C.ar      1 MOL        -0.0729
      4 C4          1.7997   -1.0786    2.6757 C.ar      1 MOL        -0.0716
      5 C5          0.7638   -0.4841    1.9551 C.ar      1 MOL        -0.0814
      6 C6          2.8783   -1.6520    2.0022 C.ar      1 MOL        -0.1722
      7 C7         -0.3889    0.1296    2.6750 C.3       1 MOL        -0.0585
      8 N1          3.9321   -2.2583    2.7355 N.pl3     1 MOL         0.3128
      9 O1          4.8926   -2.7693    2.1102 O.3       1 MOL        -0.2097
     10 O2          3.8745   -2.2665    3.9890 O.2       1 MOL        -0.2097
     11 H1          1.9181   -1.0204   -1.1979 H         1 MOL         0.1471
     12 H2          0.0041   -0.0015   -0.0081 H         1 MOL         0.1435
     13 H3          3.7556   -2.0741    0.0706 H         1 MOL         0.1715
     14 H4          1.7619   -1.0924    3.7629 H         1 MOL         0.1707
     15 H5         -1.1813   -0.6129    2.8306 H         1 MOL         0.0527
     16 H6         -0.0840    0.5231    3.6534 H         1 MOL         0.0527
     17 H7         -0.8082    0.9727    2.1104 H         1 MOL         0.0527
@<TRIPOS>BOND
     1    1    2 ar
     2    1    3 ar
     3    2    5 ar
     4    3    6 ar
     5    4    5 ar
     6    4    6 ar
     7    5    7 1
     8    6    8 1
     9    8    9 1
    10    8   10 2
    11    1   11 1
    12    2   12 1
    13    3   13 1
    14    4   14 1
    15    7   15 1
    16    7   16 1
    17    7   17 1
