@<TRIPOS>MOLECULE
2,2-dichloro-1,1-difluoro-1-methoxy-ethane
   12    11     0     0     0
SMALL
USER_CHARGES

@<TRIPOS>ATOM
      1 C1         -1.0890    0.3385   -1.5860 C.3       1 MOL         0.1190
      2 C2          1.3131   -0.0931    1.2065 C.3       1 MOL         0.1118
      3 C3          0.0408   -0.2867    0.3986 C.3       1 MOL         0.5890
      4 O1          0.0824    0.4878   -0.7962 O.3       1 MOL        -0.4622
      5 F1         -1.0504    0.0606    1.1231 F         1 MOL        -0.2269
      6 F2         -0.0928   -1.5932    0.0559 F         1 MOL        -0.2269
      7 Cl1         1.5367    1.6205    1.6441 Cl        1 MOL        -0.1015
      8 Cl2         1.2698   -1.0795    2.6892 Cl        1 MOL        -0.1015
      9 H1         -1.0031    0.9521   -2.4861 H         1 MOL         0.0552
     10 H2         -1.9626    0.6449   -1.0053 H         1 MOL         0.0552
     11 H3         -1.1936   -0.7109   -1.8718 H         1 MOL         0.0552
     12 H4          2.1896   -0.4014    0.6294 H         1 MOL         0.1337
@<TRIPOS>BOND
     1    1    4 1
     2    2    3 1
     3    2    7 1
     4    2    8 1
     5    3    4 1
     6    3    5 1
     7    3    6 1
     8    1    9 1
     9    1   10 1
    10    1   11 1
    11    2   12 1
