@<TRIPOS>MOLECULE
(2S)-1,1,1-trifluoropropan-2-ol
   12    11     0     0     0
SMALL
USER_CHARGES

@<TRIPOS>ATOM
      1 C1         -0.7763    0.5918    0.8349 C.3       1 MOL        -0.1384
      2 C2         -0.2372   -0.1769   -0.3621 C.3       1 MOL         0.1120
      3 C3         -0.0318    0.7195   -1.5646 C.3       1 MOL         0.6329
      4 O1          1.0171   -0.7582   -0.0206 O.3       1 MOL        -0.5798
      5 F1         -1.2014    1.2590   -1.9727 F         1 MOL        -0.2326
      6 F2          0.8032    1.7399   -1.2676 F         1 MOL        -0.2326
      7 F3          0.4968    0.0430   -2.6063 F         1 MOL        -0.2326
      8 H1         -0.1017    1.4088    1.1138 H         1 MOL         0.0619
      9 H2         -0.9132   -0.0628    1.7007 H         1 MOL         0.0619
     10 H3         -1.7404    1.0513    0.5914 H         1 MOL         0.0619
     11 H4         -0.9249   -0.9878   -0.6244 H         1 MOL         0.0670
     12 H5          0.8528   -1.3524    0.7284 H         1 MOL         0.4186
@<TRIPOS>BOND
     1    1    2 1
     2    2    3 1
     3    2    4 1
     4    3    5 1
     5    3    6 1
     6    3    7 1
     7    1    8 1
     8    1    9 1
     9    1   10 1
    10    2   11 1
    11    4   12 1
