@<TRIPOS>MOLECULE
butanenitrile
   12    11     0     0     0
SMALL
USER_CHARGES

@<TRIPOS>ATOM
      1 C1         -2.2442    3.3040   -1.0639 C.1       1 MOL         0.2102
      2 C2         -0.0177    0.2011   -1.0759 C.3       1 MOL        -0.0958
      3 C3         -1.0966    2.4513   -0.7272 C.3       1 MOL        -0.0238
      4 C4         -1.1844    1.1047   -1.4423 C.3       1 MOL        -0.0791
      5 N1         -3.1499    3.9792   -1.3289 N.1       1 MOL        -0.3770
      6 H1          0.0217    0.0299    0.0046 H         1 MOL         0.0384
      7 H2         -0.1012   -0.7694   -1.5754 H         1 MOL         0.0384
      8 H3          0.9277    0.6600   -1.3817 H         1 MOL         0.0384
      9 H4         -0.1679    2.9616   -1.0073 H         1 MOL         0.0732
     10 H5         -1.0634    2.2954    0.3573 H         1 MOL         0.0732
     11 H6         -1.1955    1.2559   -2.5289 H         1 MOL         0.0519
     12 H7         -2.1245    0.6021   -1.1833 H         1 MOL         0.0519
@<TRIPOS>BOND
     1    1    3 1
     2    1    5 3
     3    2    4 1
     4    3    4 1
     5    2    6 1
     6    2    7 1
     7    2    8 1
     8    3    9 1
     9    3   10 1
    10    4   11 1
    11    4   12 1
