@<TRIPOS>MOLECULE
1-bromooctane
   26    25     0     0     0
SMALL
USER_CHARGES

@<TRIPOS>ATOM
      1 C1          4.4037    1.2974   -1.1774 C.3       1 MOL        -0.0925
      2 C2          2.9741    1.1492   -1.6762 C.3       1 MOL        -0.0801
      3 C3          2.0789    0.5030   -0.6181 C.3       1 MOL        -0.0792
      4 C4          0.6239    0.3425   -1.0676 C.3       1 MOL        -0.0785
      5 C5         -0.2559   -0.3698   -0.0379 C.3       1 MOL        -0.0784
      6 C6         -1.6910   -0.5233   -0.5474 C.3       1 MOL        -0.0809
      7 C7         -2.5653   -1.2640    0.4655 C.3       1 MOL        -0.0806
      8 C8         -3.9773   -1.4477   -0.0641 C.3       1 MOL        -0.0106
      9 Br1        -5.0718   -2.3427    1.2741 Br        1 MOL        -0.1776
     10 H1          4.4408    1.9017   -0.2654 H         1 MOL         0.0331
     11 H2          4.8296    0.3149   -0.9510 H         1 MOL         0.0331
     12 H3          5.0351    1.7757   -1.9331 H         1 MOL         0.0331
     13 H4          2.9730    0.5407   -2.5877 H         1 MOL         0.0382
     14 H5          2.5932    2.1404   -1.9443 H         1 MOL         0.0382
     15 H6          2.4727   -0.4919   -0.3756 H         1 MOL         0.0397
     16 H7          2.1155    1.0903    0.3076 H         1 MOL         0.0397
     17 H8          0.2000    1.3273   -1.2991 H         1 MOL         0.0399
     18 H9          0.6169   -0.2316   -2.0026 H         1 MOL         0.0399
     19 H10        -0.2686    0.1952    0.9006 H         1 MOL         0.0420
     20 H11         0.1629   -1.3591    0.1824 H         1 MOL         0.0420
     21 H12        -2.1177    0.4676   -0.7455 H         1 MOL         0.0417
     22 H13        -1.6873   -1.0703   -1.4981 H         1 MOL         0.0417
     23 H14        -2.5888   -0.7036    1.4085 H         1 MOL         0.0563
     24 H15        -2.1191   -2.2409    0.6900 H         1 MOL         0.0563
     25 H16        -4.4632   -0.4914   -0.2762 H         1 MOL         0.0717
     26 H17        -4.0010   -2.0763   -0.9583 H         1 MOL         0.0717
@<TRIPOS>BOND
     1    1    2 1
     2    2    3 1
     3    3    4 1
     4    4    5 1
     5    5    6 1
     6    6    7 1
     7    7    8 1
     8    8    9 1
     9    1   10 1
    10    1   11 1
    11    1   12 1
    12    2   13 1
    13    2   14 1
    14    3   15 1
    15    3   16 1
    16    4   17 1
    17    4   18 1
    18    5   19 1
    19    5   20 1
    20    6   21 1
    21    6   22 1
    22    7   23 1
    23    7   24 1
    24    8   25 1
    25    8   26 1
