@<TRIPOS>MOLECULE
hept-1-yne
   19    18     0     0     0
SMALL
USER_CHARGES

@<TRIPOS>ATOM
      1 C1          0.6172    1.4588    3.9940 C.1       1 MOL        -0.1629
      2 C2          0.5605    0.6915    3.0725 C.1       1 MOL        -0.1387
      3 C3         -0.5403   -0.7929   -2.9611 C.3       1 MOL        -0.0929
      4 C4          0.4934   -0.2513    1.9473 C.3       1 MOL        -0.0021
      5 C5         -0.4724    0.1755   -1.7910 C.3       1 MOL        -0.0786
      6 C6          0.0440    0.4506    0.6659 C.3       1 MOL        -0.0758
      7 C7          0.0088   -0.5187   -0.5171 C.3       1 MOL        -0.0798
      8 H1          0.6681    2.1393    4.8116 H         1 MOL         0.1636
      9 H2         -1.2126   -1.6242   -2.7268 H         1 MOL         0.0328
     10 H3          0.4477   -1.2077   -3.1848 H         1 MOL         0.0328
     11 H4         -0.9161   -0.2954   -3.8608 H         1 MOL         0.0328
     12 H5          1.4780   -0.7085    1.7948 H         1 MOL         0.0581
     13 H6         -0.2031   -1.0620    2.1909 H         1 MOL         0.0581
     14 H7          0.2047    0.9994   -2.0449 H         1 MOL         0.0396
     15 H8         -1.4652    0.6102   -1.6260 H         1 MOL         0.0396
     16 H9         -0.9515    0.8889    0.8122 H         1 MOL         0.0470
     17 H10         0.7243    1.2819    0.4401 H         1 MOL         0.0470
     18 H11         1.0106   -0.9343   -0.6813 H         1 MOL         0.0396
     19 H12        -0.6558   -1.3594   -0.2835 H         1 MOL         0.0396
@<TRIPOS>BOND
     1    1    2 3
     2    2    4 1
     3    3    5 1
     4    4    6 1
     5    5    7 1
     6    6    7 1
     7    1    8 1
     8    3    9 1
     9    3   10 1
    10    3   11 1
    11    4   12 1
    12    4   13 1
    13    5   14 1
    14    5   15 1
    15    6   16 1
    16    6   17 1
    17    7   18 1
    18    7   19 1
