@<TRIPOS>MOLECULE
1,1,1,2-tetramethoxyethane
   24    23     0     0     0
SMALL
USER_CHARGES

@<TRIPOS>ATOM
      1 C1          1.6477   -1.5735   -3.0067 C.3       1 MOL         0.1110
      2 C2          0.8090   -1.7094    1.5100 C.3       1 MOL         0.1321
      3 C3         -2.4629    0.3119    0.1953 C.3       1 MOL         0.1321
      4 C4          0.3693    2.2068    0.3520 C.3       1 MOL         0.1321
      5 C5          0.9068   -0.2287   -1.2275 C.3       1 MOL         0.1108
      6 C6         -0.1172   -0.1296   -0.0787 C.3       1 MOL         0.5304
      7 O1          0.7587   -1.4729   -1.9036 O.3       1 MOL        -0.3858
      8 O2         -0.2213   -1.4127    0.5776 O.3       1 MOL        -0.4390
      9 O3         -1.3788    0.1793   -0.7157 O.3       1 MOL        -0.4390
     10 O4          0.2610    0.8881    0.8684 O.3       1 MOL        -0.4390
     11 H1          1.5079   -2.5377   -3.5015 H         1 MOL         0.0353
     12 H2          2.6781   -1.4782   -2.6552 H         1 MOL         0.0353
     13 H3          1.4299   -0.7690   -3.7132 H         1 MOL         0.0353
     14 H4          0.6345   -2.6965    1.9451 H         1 MOL         0.0401
     15 H5          0.8202   -0.9499    2.2959 H         1 MOL         0.0401
     16 H6          1.7700   -1.7074    0.9904 H         1 MOL         0.0401
     17 H7         -3.3771    0.5440   -0.3564 H         1 MOL         0.0401
     18 H8         -2.2438    1.1090    0.9102 H         1 MOL         0.0401
     19 H9         -2.5934   -0.6306    0.7322 H         1 MOL         0.0401
     20 H10         0.6596    2.8902    1.1537 H         1 MOL         0.0401
     21 H11        -0.5902    2.5128   -0.0725 H         1 MOL         0.0401
     22 H12         1.1325    2.2208   -0.4298 H         1 MOL         0.0401
     23 H13         1.9350   -0.1470   -0.8616 H         1 MOL         0.0438
     24 H14         0.7473    0.5629   -1.9674 H         1 MOL         0.0438
@<TRIPOS>BOND
     1    1    7 1
     2    2    8 1
     3    3    9 1
     4    4   10 1
     5    5    6 1
     6    5    7 1
     7    6    8 1
     8    6    9 1
     9    6   10 1
    10    1   11 1
    11    1   12 1
    12    1   13 1
    13    2   14 1
    14    2   15 1
    15    2   16 1
    16    3   17 1
    17    3   18 1
    18    3   19 1
    19    4   20 1
    20    4   21 1
    21    4   22 1
    22    5   23 1
    23    5   24 1
