@<TRIPOS>MOLECULE
phenoxybenzene
   23    24     0     0     0
SMALL
USER_CHARGES

@<TRIPOS>ATOM
      1 C1          1.8791   -1.0378   -0.1126 C.ar      1 MOL        -0.1335
      2 C2          4.4327   -3.6138    6.0237 C.ar      1 MOL        -0.1334
      3 C3          1.9163   -2.2545    0.5683 C.ar      1 MOL        -0.1211
      4 C4          1.8022    0.1586    0.6005 C.ar      1 MOL        -0.1211
      5 C5          4.8771   -2.8202    4.9662 C.ar      1 MOL        -0.1211
      6 C6          3.0951   -3.5672    6.4165 C.ar      1 MOL        -0.1211
      7 C7          1.8766   -2.2750    1.9625 C.ar      1 MOL        -0.1349
      8 C8          1.7625    0.1381    1.9947 C.ar      1 MOL        -0.1349
      9 C9          3.9838   -1.9800    4.3015 C.ar      1 MOL        -0.1349
     10 C10         2.2019   -2.7270    5.7519 C.ar      1 MOL        -0.1349
     11 C11         1.7997   -1.0786    2.6757 C.ar      1 MOL         0.0932
     12 C12         2.6462   -1.9333    4.6944 C.ar      1 MOL         0.0932
     13 O1          1.7593   -1.0981    4.0359 O.3       1 MOL        -0.2741
     14 H1          1.9106   -1.0215   -1.1981 H         1 MOL         0.1338
     15 H2          5.1278   -4.2686    6.5411 H         1 MOL         0.1338
     16 H3          1.9760   -3.1862    0.0132 H         1 MOL         0.1344
     17 H4          1.7735    1.1057    0.0695 H         1 MOL         0.1344
     18 H5          5.9187   -2.8562    4.6603 H         1 MOL         0.1344
     19 H6          2.7498   -4.1857    7.2401 H         1 MOL         0.1344
     20 H7          1.9044   -3.2262    2.4869 H         1 MOL         0.1434
     21 H8          1.7009    1.0731    2.5449 H         1 MOL         0.1434
     22 H9          4.3366   -1.3632    3.4795 H         1 MOL         0.1434
     23 H10         1.1614   -2.6935    6.0634 H         1 MOL         0.1434
@<TRIPOS>BOND
     1    1    3 ar
     2    1    4 ar
     3    2    5 ar
     4    2    6 ar
     5    3    7 ar
     6    4    8 ar
     7    5    9 ar
     8    6   10 ar
     9    7   11 ar
    10    8   11 ar
    11    9   12 ar
    12   10   12 ar
    13   11   13 1
    14   12   13 1
    15    1   14 1
    16    2   15 1
    17    3   16 1
    18    4   17 1
    19    5   18 1
    20    6   19 1
    21    7   20 1
    22    8   21 1
    23    9   22 1
    24   10   23 1
