@<TRIPOS>MOLECULE
2-methylthiophene
   12    12     0     0     0
SMALL
USER_CHARGES

@<TRIPOS>ATOM
      1 C1         -0.2528    0.8087   -2.0577 C.2       1 MOL        -0.1532
      2 C2         -0.4682   -0.0882   -0.9718 C.2       1 MOL        -0.1593
      3 C3         -0.9783    0.4538   -3.1737 C.2       1 MOL        -0.1692
      4 C4         -1.3504   -1.0945   -1.2990 C.2       1 MOL        -0.1001
      5 C5         -1.8295   -2.2094   -0.4535 C.3       1 MOL        -0.0241
      6 S1         -1.9146   -0.9556   -2.9098 S.3       1 MOL        -0.0063
      7 H1          0.4002    1.6709   -2.0228 H         1 MOL         0.1512
      8 H2          0.0016    0.0052   -0.0008 H         1 MOL         0.1523
      9 H3         -1.0031    0.9544   -4.1313 H         1 MOL         0.1690
     10 H4         -2.7408   -1.9248    0.0953 H         1 MOL         0.0466
     11 H5         -2.0609   -3.1071   -1.0498 H         1 MOL         0.0466
     12 H6         -1.0726   -2.5187    0.2860 H         1 MOL         0.0466
@<TRIPOS>BOND
     1    1    2 1
     2    1    3 2
     3    2    4 2
     4    3    6 1
     5    4    5 1
     6    4    6 1
     7    1    7 1
     8    2    8 1
     9    3    9 1
    10    5   10 1
    11    5   11 1
    12    5   12 1
