@<TRIPOS>MOLECULE
butane
   14    13     0     0     0
SMALL
USER_CHARGES

@<TRIPOS>ATOM
      1 C1          0.4048   -0.7298    0.7083 C.3       1 MOL        -0.0923
      2 C2          2.5420    1.6208    2.9190 C.3       1 MOL        -0.0922
      3 C3          1.6372   -0.1820    1.4100 C.3       1 MOL        -0.0799
      4 C4          1.3160    1.0885    2.1945 C.3       1 MOL        -0.0799
      5 H1         -0.0187    0.0118    0.0234 H         1 MOL         0.0323
      6 H2          0.6479   -1.6293    0.1339 H         1 MOL         0.0323
      7 H3         -0.3638   -0.9927    1.4420 H         1 MOL         0.0323
      8 H4          2.9465    0.8722    3.6077 H         1 MOL         0.0323
      9 H5          2.2823    2.5118    3.4994 H         1 MOL         0.0323
     10 H6          3.3288    1.8955    2.2091 H         1 MOL         0.0323
     11 H7          2.0358   -0.9470    2.0866 H         1 MOL         0.0377
     12 H8          2.4129    0.0268    0.6640 H         1 MOL         0.0377
     13 H9          0.9367    1.8604    1.5146 H         1 MOL         0.0377
     14 H10         0.5258    0.8846    2.9266 H         1 MOL         0.0377
@<TRIPOS>BOND
     1    1    3 1
     2    2    4 1
     3    3    4 1
     4    1    5 1
     5    1    6 1
     6    1    7 1
     7    2    8 1
     8    2    9 1
     9    2   10 1
    10    3   11 1
    11    3   12 1
    12    4   13 1
    13    4   14 1
