@<TRIPOS>MOLECULE
triethyl phosphate
   26    25     0     0     0
SMALL
USER_CHARGES

@<TRIPOS>ATOM
      1 C1         -1.2608   -0.2102   -1.2750 C.3       1 MOL        -0.1347
      2 C2          2.7680    0.2049   -6.3073 C.3       1 MOL        -0.1347
      3 C3          4.5322    2.5901   -1.4663 C.3       1 MOL        -0.1347
      4 C4         -0.1277   -0.7853   -2.0978 C.3       1 MOL         0.1626
      5 C5          3.2416   -0.2747   -4.9518 C.3       1 MOL         0.1626
      6 C6          3.3408    1.8571   -2.0448 C.3       1 MOL         0.1626
      7 O1          2.8147   -2.0294   -2.3083 O.2       1 MOL        -0.8285
      8 O2          1.0804   -0.1386   -1.7355 O.3       1 MOL        -0.5549
      9 O3          2.1854   -0.1335   -4.0172 O.3       1 MOL        -0.5549
     10 O4          3.5625    0.4610   -1.9406 O.3       1 MOL        -0.5549
     11 P1          2.4477   -0.5829   -2.4828 P.3       1 MOL         1.5936
     12 H1         -1.0869   -0.3686   -0.2070 H         1 MOL         0.0498
     13 H2         -1.3662    0.8637   -1.4606 H         1 MOL         0.0498
     14 H3         -2.2128   -0.6758   -1.5508 H         1 MOL         0.0498
     15 H4          1.9146   -0.3848   -6.6535 H         1 MOL         0.0498
     16 H5          2.4748    1.2589   -6.2631 H         1 MOL         0.0498
     17 H6          3.5728    0.1291   -7.0461 H         1 MOL         0.0498
     18 H7          4.6718    2.3368   -0.4116 H         1 MOL         0.0498
     19 H8          5.4453    2.3362   -2.0147 H         1 MOL         0.0498
     20 H9          4.3988    3.6735   -1.5546 H         1 MOL         0.0498
     21 H10        -0.3077   -0.6235   -3.1648 H         1 MOL         0.0612
     22 H11        -0.0231   -1.8581   -1.9106 H         1 MOL         0.0612
     23 H12         4.0952    0.3191   -4.6113 H         1 MOL         0.0612
     24 H13         3.5334   -1.3281   -4.9975 H         1 MOL         0.0612
     25 H14         3.2068    2.1148   -3.0997 H         1 MOL         0.0612
     26 H15         2.4296    2.1113   -1.4952 H         1 MOL         0.0612
@<TRIPOS>BOND
     1    1    4 1
     2    2    5 1
     3    3    6 1
     4    4    8 1
     5    5    9 1
     6    6   10 1
     7    7   11 2
     8    8   11 1
     9    9   11 1
    10   10   11 1
    11    1   12 1
    12    1   13 1
    13    1   14 1
    14    2   15 1
    15    2   16 1
    16    2   17 1
    17    3   18 1
    18    3   19 1
    19    3   20 1
    20    4   21 1
    21    4   22 1
    22    5   23 1
    23    5   24 1
    24    6   25 1
    25    6   26 1
