@<TRIPOS>MOLECULE
3-nitrophenol
   15    15     0     0     0
SMALL
USER_CHARGES

@<TRIPOS>ATOM
      1 C1          1.8851   -1.0363   -0.1124 C.ar      1 MOL        -0.1060
      2 C2          0.8066   -0.4630    0.5610 C.ar      1 MOL        -0.1042
      3 C3          2.9210   -1.6309    0.6081 C.ar      1 MOL        -0.1156
      4 C4          1.7997   -1.0786    2.6757 C.ar      1 MOL        -0.1599
      5 C5          0.7638   -0.4841    1.9551 C.ar      1 MOL        -0.1351
      6 C6          2.8783   -1.6520    2.0022 C.ar      1 MOL         0.1196
      7 N1         -0.3346    0.0991    2.6406 N.pl3     1 MOL         0.3120
      8 O1         -1.2561    0.6281    1.9732 O.3       1 MOL        -0.2049
      9 O2         -0.3536    0.0692    3.8948 O.2       1 MOL        -0.2049
     10 O3          3.8893   -2.2323    2.7047 O.3       1 MOL        -0.4894
     11 H1          1.9188   -1.0194   -1.1979 H         1 MOL         0.1535
     12 H2          0.0055   -0.0029   -0.0128 H         1 MOL         0.1719
     13 H3          3.7585   -2.0761    0.0781 H         1 MOL         0.1628
     14 H4          1.7735   -1.0980    3.7629 H         1 MOL         0.1722
     15 H5          3.7171   -2.1678    3.6576 H         1 MOL         0.4282
@<TRIPOS>BOND
     1    1    2 ar
     2    1    3 ar
     3    2    5 ar
     4    3    6 ar
     5    4    5 ar
     6    4    6 ar
     7    5    7 1
     8    6   10 1
     9    7    8 1
    10    7    9 2
    11    1   11 1
    12    2   12 1
    13    3   13 1
    14    4   14 1
    15   10   15 1
