@<TRIPOS>MOLECULE
4-tert-butylphenol
   25    25     0     0     0
SMALL
USER_CHARGES

@<TRIPOS>ATOM
      1 C1         -0.9663   -1.0428    2.4403 C.ar      1 MOL        -0.0926
      2 C2         -3.2648   -1.5363    1.8835 C.ar      1 MOL        -0.0926
      3 C3         -0.9820   -2.0536    3.4013 C.ar      1 MOL        -0.1849
      4 C4         -3.2806   -2.5472    2.8445 C.ar      1 MOL        -0.1849
      5 C5         -2.1077   -0.7840    1.6815 C.ar      1 MOL        -0.0983
      6 C6         -2.1391   -2.8059    3.6034 C.ar      1 MOL         0.1198
      7 C7         -1.0055    0.0255   -0.4341 C.3       1 MOL        -0.0862
      8 C8         -1.7775    1.6835    1.2954 C.3       1 MOL        -0.0862
      9 C9         -3.4286    0.4950   -0.1338 C.3       1 MOL        -0.0862
     10 C10        -2.0904    0.3299    0.6216 C.3       1 MOL        -0.0056
     11 O1         -2.1538   -3.7931    4.5402 O.3       1 MOL        -0.4984
     12 H1         -0.0605   -0.4616    2.2897 H         1 MOL         0.1345
     13 H2         -4.1590   -1.3416    1.2969 H         1 MOL         0.1345
     14 H3         -0.0894   -2.2506    3.9892 H         1 MOL         0.1406
     15 H4         -4.1848   -3.1298    2.9968 H         1 MOL         0.1406
     16 H5         -0.9722    0.8062   -1.2031 H         1 MOL         0.0365
     17 H6         -0.0039   -0.0333    0.0056 H         1 MOL         0.0365
     18 H7         -1.2009   -0.9294   -0.9363 H         1 MOL         0.0365
     19 H8         -1.7547    2.5093    0.5760 H         1 MOL         0.0365
     20 H9         -2.5344    1.9349    2.0476 H         1 MOL         0.0365
     21 H10        -0.8033    1.6580    1.7980 H         1 MOL         0.0365
     22 H11        -3.3662    1.2993   -0.8768 H         1 MOL         0.0365
     23 H12        -3.7038   -0.4195   -0.6722 H         1 MOL         0.0365
     24 H13        -4.2482    0.7498    0.5482 H         1 MOL         0.0365
     25 H14        -3.0237   -4.2228    4.5624 H         1 MOL         0.4178
@<TRIPOS>BOND
     1    1    3 ar
     2    1    5 ar
     3    2    4 ar
     4    2    5 ar
     5    3    6 ar
     6    4    6 ar
     7    5   10 1
     8    6   11 1
     9    7   10 1
    10    8   10 1
    11    9   10 1
    12    1   12 1
    13    2   13 1
    14    3   14 1
    15    4   15 1
    16    7   16 1
    17    7   17 1
    18    7   18 1
    19    8   19 1
    20    8   20 1
    21    8   21 1
    22    9   22 1
    23    9   23 1
    24    9   24 1
    25   11   25 1
