@<TRIPOS>MOLECULE
naphthalen-1-ol
   19    20     0     0     0
SMALL
USER_CHARGES

@<TRIPOS>ATOM
      1 C1         -0.4966   -2.0341    0.4940 C.ar      1 MOL        -0.1145
      2 C2          0.3500   -1.0275    0.0392 C.ar      1 MOL        -0.1418
      3 C3          3.0228   -5.3167   -0.2210 C.ar      1 MOL        -0.0887
      4 C4         -0.0479   -3.3542    0.5448 C.ar      1 MOL        -0.1302
      5 C5          1.6484   -1.3369   -0.3665 C.ar      1 MOL        -0.0912
      6 C6          1.7243   -5.0072    0.1848 C.ar      1 MOL        -0.1536
      7 C7          3.8693   -4.3100   -0.6758 C.ar      1 MOL        -0.2299
      8 C8          1.2560   -3.6839    0.1403 C.ar      1 MOL        -0.0097
      9 C9          2.1168   -2.6602   -0.3222 C.ar      1 MOL        -0.0541
     10 C10         3.4207   -2.9899   -0.7267 C.ar      1 MOL         0.1434
     11 O1          4.2871   -2.0364   -1.1801 O.3       1 MOL        -0.4986
     12 H1         -1.5073   -1.7925    0.8098 H         1 MOL         0.1320
     13 H2         -0.0002   -0.0000    0.0000 H         1 MOL         0.1337
     14 H3          3.3726   -6.3442   -0.1817 H         1 MOL         0.1328
     15 H4         -0.7269   -4.1249    0.9038 H         1 MOL         0.1331
     16 H5          2.2840   -0.5265   -0.7166 H         1 MOL         0.1482
     17 H6          1.0800   -5.8101    0.5368 H         1 MOL         0.1340
     18 H7          4.8792   -4.5596   -0.9901 H         1 MOL         0.1339
     19 H8          5.1352   -2.4429   -1.4130 H         1 MOL         0.4211
@<TRIPOS>BOND
     1    1    2 ar
     2    1    4 ar
     3    2    5 ar
     4    3    6 ar
     5    3    7 ar
     6    4    8 ar
     7    5    9 ar
     8    6    8 ar
     9    7   10 ar
    10    8    9 ar
    11    9   10 ar
    12   10   11 1
    13    1   12 1
    14    2   13 1
    15    3   14 1
    16    4   15 1
    17    5   16 1
    18    6   17 1
    19    7   18 1
    20   11   19 1
