@<TRIPOS>MOLECULE
2-methoxyaniline
   18    18     0     0     0
SMALL
USER_CHARGES

@<TRIPOS>ATOM
      1 C1          1.8851   -1.0363   -0.1124 C.ar      1 MOL        -0.0973
      2 C2          0.8066   -0.4630    0.5610 C.ar      1 MOL        -0.1655
      3 C3          2.9210   -1.6309    0.6081 C.ar      1 MOL        -0.1853
      4 C4          0.7638   -0.4841    1.9551 C.ar      1 MOL        -0.1020
      5 C5          2.8783   -1.6520    2.0022 C.ar      1 MOL         0.1288
      6 C6          1.7997   -1.0786    2.6757 C.ar      1 MOL         0.0244
      7 C7          2.3235    0.0188    4.7194 C.3       1 MOL         0.1133
      8 N1          3.9335   -2.2572    2.7187 N.pl3     1 MOL        -0.8153
      9 O1          1.7391   -1.0885    4.0371 O.3       1 MOL        -0.3503
     10 H1          1.9187   -1.0191   -1.1978 H         1 MOL         0.1323
     11 H2         -0.0000   -0.0005   -0.0001 H         1 MOL         0.1323
     12 H3          3.7564   -2.0750    0.0725 H         1 MOL         0.1321
     13 H4         -0.0796   -0.0362    2.4738 H         1 MOL         0.1424
     14 H5          2.2065   -0.1137    5.7978 H         1 MOL         0.0405
     15 H6          1.8358    0.9433    4.4002 H         1 MOL         0.0405
     16 H7          3.3870    0.0667    4.4738 H         1 MOL         0.0405
     17 H8          4.6717   -2.7029    2.2137 H         1 MOL         0.3942
     18 H9          3.8762   -2.3120    3.7149 H         1 MOL         0.3942
@<TRIPOS>BOND
     1    1    2 ar
     2    1    3 ar
     3    2    4 ar
     4    3    5 ar
     5    4    6 ar
     6    5    6 ar
     7    5    8 1
     8    6    9 1
     9    7    9 1
    10    1   10 1
    11    2   11 1
    12    3   12 1
    13    4   13 1
    14    7   14 1
    15    7   15 1
    16    7   16 1
    17    8   17 1
    18    8   18 1
