@<TRIPOS>MOLECULE
nitrobenzene
   14    14     0     0     0
SMALL
USER_CHARGES

@<TRIPOS>ATOM
      1 C1          1.8851   -1.0363   -0.1124 C.ar      1 MOL        -0.0886
      2 C2          0.8066   -0.4630    0.5610 C.ar      1 MOL        -0.1396
      3 C3          2.9210   -1.6309    0.6081 C.ar      1 MOL        -0.1396
      4 C4          0.7638   -0.4841    1.9551 C.ar      1 MOL        -0.0675
      5 C5          2.8783   -1.6520    2.0022 C.ar      1 MOL        -0.0675
      6 C6          1.7997   -1.0786    2.6757 C.ar      1 MOL        -0.1753
      7 N1          1.7559   -1.1004    4.0947 N.pl3     1 MOL         0.3117
      8 O1          0.7765   -0.5792    4.6809 O.3       1 MOL        -0.2086
      9 O2          2.6978   -1.6402    4.7239 O.2       1 MOL        -0.2086
     10 H1          1.9180   -1.0212   -1.1979 H         1 MOL         0.1443
     11 H2         -0.0007   -0.0005    0.0006 H         1 MOL         0.1482
     12 H3          3.7604   -2.0780    0.0838 H         1 MOL         0.1482
     13 H4         -0.0829   -0.0338    2.4679 H         1 MOL         0.1714
     14 H5          3.6922   -2.1188    2.5516 H         1 MOL         0.1714
@<TRIPOS>BOND
     1    1    2 ar
     2    1    3 ar
     3    2    4 ar
     4    3    5 ar
     5    4    6 ar
     6    5    6 ar
     7    6    7 1
     8    7    8 1
     9    7    9 2
    10    1   10 1
    11    2   11 1
    12    3   12 1
    13    4   13 1
    14    5   14 1
