@<TRIPOS>MOLECULE
N,N-dimethyl-4-nitro-benzamide
   24    24     0     0     0
SMALL
USER_CHARGES

@<TRIPOS>ATOM
      1 C1          1.8054   -1.0908   -0.1541 C.ar      1 MOL        -0.1120
      2 C2          2.7529   -1.6967    1.9842 C.ar      1 MOL        -0.1120
      3 C3          0.6943   -0.5488    0.4918 C.ar      1 MOL        -0.0703
      4 C4          1.6418   -1.1546    2.6301 C.ar      1 MOL        -0.0703
      5 C5          2.8348   -1.6648    0.5921 C.ar      1 MOL        -0.0846
      6 C6          0.6125   -0.5807    1.8839 C.ar      1 MOL        -0.1676
      7 C7          3.9934   -2.2294   -0.0814 C.2       1 MOL         0.6634
      8 C8          6.3043   -1.8981   -0.9932 C.3       1 MOL         0.0803
      9 C9          5.1220    0.0104    0.0357 C.3       1 MOL         0.0803
     10 N1          5.1022   -1.4022   -0.3380 N.am      1 MOL        -0.4776
     11 N2         -0.5188   -0.0295    2.5413 N.pl3     1 MOL         0.3117
     12 O1         -1.4339    0.4816    1.8513 O.3       1 MOL        -0.2043
     13 O2          3.9387   -3.4293   -0.3823 O.2       1 MOL        -0.5799
     14 O3         -0.5730   -0.0684    3.7944 O.2       1 MOL        -0.2043
     15 H1          1.8591   -1.0604   -1.2394 H         1 MOL         0.1595
     16 H2          3.5496   -2.1410    2.5754 H         1 MOL         0.1595
     17 H3         -0.1012   -0.1048   -0.1017 H         1 MOL         0.1759
     18 H4          1.5909   -1.1857    3.7158 H         1 MOL         0.1759
     19 H5          6.2183   -1.7787   -2.0763 H         1 MOL         0.0461
     20 H6          6.4485   -2.9579   -0.7663 H         1 MOL         0.0461
     21 H7          7.1801   -1.3431   -0.6463 H         1 MOL         0.0461
     22 H8          5.5232    0.1262    1.0459 H         1 MOL         0.0461
     23 H9          4.1095    0.4224    0.0098 H         1 MOL         0.0461
     24 H10         5.7486    0.5764   -0.6589 H         1 MOL         0.0461
@<TRIPOS>BOND
     1    1    3 ar
     2    1    5 ar
     3    2    4 ar
     4    2    5 ar
     5    3    6 ar
     6    4    6 ar
     7    5    7 1
     8    6   11 1
     9    7   10 am
    10    7   13 2
    11    8   10 1
    12    9   10 1
    13   11   12 1
    14   11   14 2
    15    1   15 1
    16    2   16 1
    17    3   17 1
    18    4   18 1
    19    8   19 1
    20    8   20 1
    21    8   21 1
    22    9   22 1
    23    9   23 1
    24    9   24 1
