@<TRIPOS>MOLECULE
2-fluorophenol
   13    13     0     0     0
SMALL
USER_CHARGES

@<TRIPOS>ATOM
      1 C1          1.8851   -1.0363   -0.1124 C.ar      1 MOL        -0.1059
      2 C2          0.8066   -0.4630    0.5610 C.ar      1 MOL        -0.1406
      3 C3          2.9210   -1.6309    0.6081 C.ar      1 MOL        -0.1920
      4 C4          0.7638   -0.4841    1.9551 C.ar      1 MOL        -0.1345
      5 C5          2.8783   -1.6520    2.0022 C.ar      1 MOL         0.0911
      6 C6          1.7997   -1.0786    2.6757 C.ar      1 MOL         0.1020
      7 O1          3.8898   -2.2322    2.7044 O.3       1 MOL        -0.4825
      8 F1          1.7528   -1.0956    4.0149 F         1 MOL        -0.1261
      9 H1          1.9179   -1.0202   -1.1980 H         1 MOL         0.1372
     10 H2          0.0004    0.0004   -0.0001 H         1 MOL         0.1400
     11 H3          3.7582   -2.0761    0.0777 H         1 MOL         0.1387
     12 H4         -0.0757   -0.0379    2.4796 H         1 MOL         0.1508
     13 H5          4.5616   -2.5831    2.0984 H         1 MOL         0.4217
@<TRIPOS>BOND
     1    1    2 ar
     2    1    3 ar
     3    2    4 ar
     4    3    5 ar
     5    4    6 ar
     6    5    6 ar
     7    5    7 1
     8    6    8 1
     9    1    9 1
    10    2   10 1
    11    3   11 1
    12    4   12 1
    13    7   13 1
