@<TRIPOS>MOLECULE
2,2,5-trimethylhexane
   29    28     0     0     0
SMALL
USER_CHARGES

@<TRIPOS>ATOM
      1 C1         -0.9342   -1.8242    2.0753 C.3       1 MOL        -0.0905
      2 C2         -0.6962   -3.3249    0.0879 C.3       1 MOL        -0.0905
      3 C3          2.0109    1.3693   -0.0501 C.3       1 MOL        -0.0862
      4 C4          0.4674    1.4891   -2.0121 C.3       1 MOL        -0.0862
      5 C5          0.1605    3.0457   -0.0703 C.3       1 MOL        -0.0862
      6 C6         -0.0585   -0.9038   -0.1416 C.3       1 MOL        -0.0739
      7 C7         -0.3453    0.5609    0.2207 C.3       1 MOL        -0.0682
      8 C8         -1.0122   -1.8998    0.5497 C.3       1 MOL        -0.0673
      9 C9          0.5518    1.6167   -0.4823 C.3       1 MOL        -0.0548
     10 H1          0.0751   -2.0457    2.4346 H         1 MOL         0.0329
     11 H2         -1.6273   -2.5309    2.5439 H         1 MOL         0.0329
     12 H3         -1.1880   -0.8185    2.4277 H         1 MOL         0.0329
     13 H4          0.3236   -3.6151    0.3628 H         1 MOL         0.0329
     14 H5         -1.3873   -4.0436    0.5411 H         1 MOL         0.0329
     15 H6         -0.7925   -3.4124   -0.9995 H         1 MOL         0.0329
     16 H7          2.1205    1.4502    1.0373 H         1 MOL         0.0336
     17 H8          2.3478    0.3696   -0.3469 H         1 MOL         0.0336
     18 H9          2.6905    2.0975   -0.5075 H         1 MOL         0.0336
     19 H10        -0.5556    1.6577   -2.3665 H         1 MOL         0.0336
     20 H11         1.1217    2.2083   -2.5156 H         1 MOL         0.0336
     21 H12         0.7727    0.4893   -2.3414 H         1 MOL         0.0336
     22 H13        -0.8728    3.2706   -0.3571 H         1 MOL         0.0336
     23 H14         0.8100    3.7959   -0.5325 H         1 MOL         0.0336
     24 H15         0.2398    3.1777    1.0150 H         1 MOL         0.0336
     25 H16         0.9758   -1.1561    0.1200 H         1 MOL         0.0407
     26 H17        -0.1549   -1.0362   -1.2248 H         1 MOL         0.0407
     27 H18        -0.2348    0.6846    1.3052 H         1 MOL         0.0391
     28 H19        -1.3969    0.7791   -0.0088 H         1 MOL         0.0391
     29 H20        -2.0415   -1.6699    0.2463 H         1 MOL         0.0446
@<TRIPOS>BOND
     1    1    8 1
     2    2    8 1
     3    3    9 1
     4    4    9 1
     5    5    9 1
     6    6    7 1
     7    6    8 1
     8    7    9 1
     9    1   10 1
    10    1   11 1
    11    1   12 1
    12    2   13 1
    13    2   14 1
    14    2   15 1
    15    3   16 1
    16    3   17 1
    17    3   18 1
    18    4   19 1
    19    4   20 1
    20    4   21 1
    21    5   22 1
    22    5   23 1
    23    5   24 1
    24    6   25 1
    25    6   26 1
    26    7   27 1
    27    7   28 1
    28    8   29 1
