@<TRIPOS>MOLECULE
(2S,3S,4S,7S,8R)-3,5,6,7,8,9,9-heptachlorotricyclo[BLAH.BLAH.BLAH.BLAH]deca-,5-diene
   22    24     0     0     0
SMALL
USER_CHARGES

@<TRIPOS>ATOM
      1 C1          0.8376    1.2944   -1.8439 C.2       1 MOL        -0.1473
      2 C2          1.9517    0.5553   -1.8617 C.2       1 MOL        -0.1614
      3 C3          0.1295    1.2082    1.0161 C.2       1 MOL        -0.0239
      4 C4          0.6496    0.0126    1.3195 C.2       1 MOL        -0.0413
      5 C5         -0.3433    0.5284   -1.3416 C.3       1 MOL        -0.0472
      6 C6          1.7399   -0.8437   -1.3754 C.3       1 MOL         0.0812
      7 C7          0.2495   -0.8874   -0.9940 C.3       1 MOL        -0.0818
      8 C8         -0.9866    0.9755    0.0146 C.3       1 MOL         0.0826
      9 C9         -0.1163   -1.0309    0.5268 C.3       1 MOL         0.0830
     10 C10        -1.5382   -0.3770    0.5734 C.3       1 MOL         0.1325
     11 Cl1         0.6186    2.7311    1.5704 Cl        1 MOL        -0.0042
     12 Cl2         1.9393   -0.3267    2.3630 Cl        1 MOL        -0.0068
     13 Cl3         2.0985   -1.9816   -2.7002 Cl        1 MOL        -0.1713
     14 Cl4        -2.1725    2.2545   -0.1473 Cl        1 MOL        -0.0747
     15 Cl5        -0.0298   -2.6776    1.1185 Cl        1 MOL        -0.0717
     16 Cl6        -2.2572   -0.2676    2.2239 Cl        1 MOL        -0.0900
     17 Cl7        -2.7702   -1.1677   -0.4621 Cl        1 MOL        -0.0900
     18 H1          0.7917    2.3279   -2.1562 H         1 MOL         0.1593
     19 H2          2.9118    0.9334   -2.1859 H         1 MOL         0.1607
     20 H3         -1.0894    0.4407   -2.1408 H         1 MOL         0.1023
     21 H4          2.4064   -1.0930   -0.5470 H         1 MOL         0.0989
     22 H5         -0.2801   -1.6561   -1.5726 H         1 MOL         0.1108
@<TRIPOS>BOND
     1    1    2 2
     2    1    5 1
     3    2    6 1
     4    3    4 2
     5    3    8 1
     6    3   11 1
     7    4    9 1
     8    4   12 1
     9    5    7 1
    10    5    8 1
    11    6    7 1
    12    6   13 1
    13    7    9 1
    14    8   10 1
    15    8   14 1
    16    9   10 1
    17    9   15 1
    18   10   16 1
    19   10   17 1
    20    1   18 1
    21    2   19 1
    22    5   20 1
    23    6   21 1
    24    7   22 1
