@<TRIPOS>MOLECULE
2,4-dimethylpyridine
   17    17     0     0     0
SMALL
USER_CHARGES

@<TRIPOS>ATOM
      1 C1          0.2265   -0.4197    0.9733 C.ar      1 MOL        -0.2567
      2 C2          1.6520   -0.6227    2.8997 C.ar      1 MOL        -0.2512
      3 C3         -0.6317   -1.3224    1.5803 C.ar      1 MOL         0.4031
      4 C4          1.3879   -0.0684    1.6522 C.ar      1 MOL        -0.0357
      5 C5          0.7299   -1.5161    3.4206 C.ar      1 MOL         0.4147
      6 C6          2.3462    0.8984    1.0438 C.3       1 MOL        -0.0607
      7 C7          0.9808   -2.1305    4.7573 C.3       1 MOL        -0.1503
      8 N1         -0.4092   -1.8816    2.7908 N.ar      1 MOL        -0.6729
      9 H1         -0.0084   -0.0046   -0.0009 H         1 MOL         0.1410
     10 H2          2.5523   -0.3625    3.4473 H         1 MOL         0.1413
     11 H3         -1.5512   -1.6288    1.0924 H         1 MOL         0.0205
     12 H4          2.0931    1.9243    1.3386 H         1 MOL         0.0493
     13 H5          3.3770    0.6904    1.3593 H         1 MOL         0.0493
     14 H6          2.3316    0.8381   -0.0524 H         1 MOL         0.0493
     15 H7          0.5462   -1.5095    5.5497 H         1 MOL         0.0529
     16 H8          0.5432   -3.1348    4.8217 H         1 MOL         0.0529
     17 H9          2.0560   -2.2389    4.9494 H         1 MOL         0.0529
@<TRIPOS>BOND
     1    1    3 ar
     2    1    4 ar
     3    2    4 ar
     4    2    5 ar
     5    3    8 ar
     6    4    6 1
     7    5    7 1
     8    5    8 ar
     9    1    9 1
    10    2   10 1
    11    3   11 1
    12    6   12 1
    13    6   13 1
    14    6   14 1
    15    7   15 1
    16    7   16 1
    17    7   17 1
