@<TRIPOS>MOLECULE
propylbenzene
   21    21     0     0     0
SMALL
USER_CHARGES

@<TRIPOS>ATOM
      1 C1          1.8851   -1.0363   -0.1124 C.ar      1 MOL        -0.1334
      2 C2          0.8066   -0.4630    0.5610 C.ar      1 MOL        -0.1287
      3 C3          2.9210   -1.6309    0.6081 C.ar      1 MOL        -0.1287
      4 C4          0.7638   -0.4841    1.9551 C.ar      1 MOL        -0.1276
      5 C5          2.8783   -1.6520    2.0022 C.ar      1 MOL        -0.1276
      6 C6          1.7997   -1.0786    2.6757 C.ar      1 MOL        -0.0765
      7 C7          2.3475    0.1277    6.3019 C.3       1 MOL        -0.0934
      8 C8          1.7548   -1.1014    4.1663 C.3       1 MOL        -0.0368
      9 C9          2.4245    0.1358    4.7834 C.3       1 MOL        -0.0767
     10 H1          1.9176   -1.0210   -1.1980 H         1 MOL         0.1295
     11 H2         -0.0006   -0.0010    0.0001 H         1 MOL         0.1302
     12 H3          3.7604   -2.0783    0.0841 H         1 MOL         0.1302
     13 H4         -0.0804   -0.0348    2.4713 H         1 MOL         0.1301
     14 H5          3.6899   -2.1173    2.5553 H         1 MOL         0.1301
     15 H6          1.3079    0.0830    6.6417 H         1 MOL         0.0333
     16 H7          2.8829   -0.7321    6.7172 H         1 MOL         0.0333
     17 H8          2.7989    1.0378    6.7093 H         1 MOL         0.0333
     18 H9          0.7117   -1.1611    4.5212 H         1 MOL         0.0468
     19 H10         2.2474   -2.0090    4.5548 H         1 MOL         0.0468
     20 H11         3.4769    0.1809    4.4777 H         1 MOL         0.0429
     21 H12         1.9453    1.0467    4.4047 H         1 MOL         0.0429
@<TRIPOS>BOND
     1    1    2 ar
     2    1    3 ar
     3    2    4 ar
     4    3    5 ar
     5    4    6 ar
     6    5    6 ar
     7    6    8 1
     8    7    9 1
     9    8    9 1
    10    1   10 1
    11    2   11 1
    12    3   12 1
    13    4   13 1
    14    5   14 1
    15    7   15 1
    16    7   16 1
    17    7   17 1
    18    8   18 1
    19    8   19 1
    20    9   20 1
    21    9   21 1
