@<TRIPOS>MOLECULE
(4-chlorophenyl)sulfanylmethylsulfanyl-diethoxy-thioxo-$l^{5}-phosphane
   34    34     0     0     0
SMALL
USER_CHARGES

@<TRIPOS>ATOM
      1 C1          2.4061   -3.8626    5.2406 C.ar      1 MOL        -0.0844
      2 C2          2.0647   -3.0494    7.4898 C.ar      1 MOL        -0.0844
      3 C3          3.4781   -4.6374    5.6834 C.ar      1 MOL        -0.1318
      4 C4          3.1367   -3.8242    7.9327 C.ar      1 MOL        -0.1318
      5 C5          1.6994   -3.0685    6.1438 C.ar      1 MOL        -0.0458
      6 C6          3.8434   -4.6182    7.0295 C.ar      1 MOL         0.0363
      7 C7          2.1930   -0.5031   -0.4611 C.3       1 MOL        -0.0963
      8 C8         -1.1501   -6.3340    1.5085 C.3       1 MOL        -0.0963
      9 C9          0.7808   -0.6245    0.0705 C.3       1 MOL         0.1338
     10 C10        -1.6796   -4.9159    1.5201 C.3       1 MOL         0.1338
     11 C11         0.3132   -2.4840    3.8033 C.3       1 MOL         0.1443
     12 O1          0.5066   -1.9883    0.3457 O.3       1 MOL        -0.4784
     13 O2         -0.6713   -4.0425    1.0396 O.3       1 MOL        -0.4784
     14 P1         -0.9515   -2.4349    0.9358 P.3       1 MOL         0.8432
     15 S1         -2.4089   -2.0114   -0.3077 S.2       1 MOL        -0.4958
     16 S2          0.3254   -2.0745    5.5759 S.3       1 MOL        -0.1258
     17 S3         -1.0646   -1.6987    2.9278 S.3       1 MOL        -0.3466
     18 Cl1         5.1640   -5.5764    7.5763 Cl        1 MOL        -0.0858
     19 H1          2.1361   -3.8908    4.1877 H         1 MOL         0.1478
     20 H2          1.5257   -2.4372    8.2089 H         1 MOL         0.1478
     21 H3          4.0198   -5.2516    4.9686 H         1 MOL         0.1515
     22 H4          3.4102   -3.7995    8.9845 H         1 MOL         0.1515
     23 H5          2.9188   -0.8637    0.2732 H         1 MOL         0.0570
     24 H6          2.3086   -1.0793   -1.3849 H         1 MOL         0.0570
     25 H7          2.4252    0.5390   -0.7049 H         1 MOL         0.0570
     26 H8         -0.8771   -6.6404    0.4949 H         1 MOL         0.0570
     27 H9         -0.2699   -6.4228    2.1538 H         1 MOL         0.0570
     28 H10        -1.9012   -7.0295    1.8975 H         1 MOL         0.0570
     29 H11         0.0601   -0.2623   -0.6686 H         1 MOL         0.0661
     30 H12         0.6673   -0.0489    0.9940 H         1 MOL         0.0661
     31 H13        -1.9507   -4.6158    2.5367 H         1 MOL         0.0661
     32 H14        -2.5584   -4.8288    0.8743 H         1 MOL         0.0661
     33 H15         1.2608   -2.2112    3.3324 H         1 MOL         0.0926
     34 H16         0.2013   -3.5678    3.7102 H         1 MOL         0.0926
@<TRIPOS>BOND
     1    1    3 ar
     2    1    5 ar
     3    2    4 ar
     4    2    5 ar
     5    3    6 ar
     6    4    6 ar
     7    5   16 1
     8    6   18 1
     9    7    9 1
    10    8   10 1
    11    9   12 1
    12   10   13 1
    13   11   16 1
    14   11   17 1
    15   12   14 1
    16   13   14 1
    17   14   15 2
    18   14   17 1
    19    1   19 1
    20    2   20 1
    21    3   21 1
    22    4   22 1
    23    7   23 1
    24    7   24 1
    25    7   25 1
    26    8   26 1
    27    8   27 1
    28    8   28 1
    29    9   29 1
    30    9   30 1
    31   10   31 1
    32   10   32 1
    33   11   33 1
    34   11   34 1
