@<TRIPOS>MOLECULE
3,4-dimethylphenol
   19    19     0     0     0
SMALL
USER_CHARGES

@<TRIPOS>ATOM
      1 C1          1.8851   -1.0363   -0.1124 C.ar      1 MOL        -0.0896
      2 C2          0.8066   -0.4630    0.5610 C.ar      1 MOL        -0.2150
      3 C3          1.7997   -1.0786    2.6757 C.ar      1 MOL        -0.1569
      4 C4          2.9210   -1.6309    0.6081 C.ar      1 MOL        -0.1111
      5 C5          2.8783   -1.6520    2.0022 C.ar      1 MOL        -0.0420
      6 C6          0.7638   -0.4841    1.9551 C.ar      1 MOL         0.1231
      7 C7          4.0652   -2.2381   -0.1350 C.3       1 MOL        -0.0486
      8 C8          3.9752   -2.2838    2.7946 C.3       1 MOL        -0.0571
      9 O1         -0.2888    0.0748    2.6123 O.3       1 MOL        -0.4992
     10 H1          1.9097   -1.0149   -1.1989 H         1 MOL         0.1331
     11 H2          0.0027   -0.0013   -0.0059 H         1 MOL         0.1305
     12 H3          1.7634   -1.0930    3.7626 H         1 MOL         0.1492
     13 H4          4.8527   -1.4926   -0.2952 H         1 MOL         0.0421
     14 H5          4.4921   -3.0845    0.4171 H         1 MOL         0.0421
     15 H6          3.7444   -2.6230   -1.1111 H         1 MOL         0.0421
     16 H7          3.7574   -3.3443    2.9665 H         1 MOL         0.0464
     17 H8          4.9372   -2.2045    2.2734 H         1 MOL         0.0464
     18 H9          4.0971   -1.7898    3.7666 H         1 MOL         0.0464
     19 H10        -0.9233    0.4448    1.9780 H         1 MOL         0.4180
@<TRIPOS>BOND
     1    1    2 ar
     2    1    4 ar
     3    2    6 ar
     4    3    5 ar
     5    3    6 ar
     6    4    5 ar
     7    4    7 1
     8    5    8 1
     9    6    9 1
    10    1   10 1
    11    2   11 1
    12    3   12 1
    13    7   13 1
    14    7   14 1
    15    7   15 1
    16    8   16 1
    17    8   17 1
    18    8   18 1
    19    9   19 1
