@<TRIPOS>MOLECULE
undecan-2-one
   34    33     0     0     0
SMALL
USER_CHARGES

@<TRIPOS>ATOM
      1 C1          4.5557    0.6195    1.1644 C.2       1 MOL         0.5618
      2 C2          5.6258   -0.3742    1.5359 C.3       1 MOL        -0.2014
      3 C3         -6.7357    2.6944    1.1959 C.3       1 MOL        -0.0930
      4 C4          3.1207    0.1701    1.3850 C.3       1 MOL        -0.1782
      5 C5         -5.3174    3.1320    0.8666 C.3       1 MOL        -0.0803
      6 C6          2.0790    1.2122    0.9808 C.3       1 MOL        -0.0739
      7 C7         -4.3037    2.0321    1.1849 C.3       1 MOL        -0.0778
      8 C8          0.6446    0.7235    1.2097 C.3       1 MOL        -0.0767
      9 C9         -2.8834    2.4647    0.8163 C.3       1 MOL        -0.0782
     10 C10        -0.3728    1.8021    0.8316 C.3       1 MOL        -0.0775
     11 C11        -1.8227    1.4026    1.1222 C.3       1 MOL        -0.0780
     12 O1          4.8490    1.7336    0.7338 O.2       1 MOL        -0.5340
     13 H1          5.8598   -1.0008    0.6717 H         1 MOL         0.0635
     14 H2          5.2707   -1.0123    2.3500 H         1 MOL         0.0635
     15 H3          6.5196    0.1586    1.8699 H         1 MOL         0.0635
     16 H4         -7.0066    1.7915    0.6391 H         1 MOL         0.0324
     17 H5         -6.8435    2.4843    2.2649 H         1 MOL         0.0324
     18 H6         -7.4468    3.4832    0.9312 H         1 MOL         0.0324
     19 H7          3.0154   -0.0453    2.4544 H         1 MOL         0.0619
     20 H8          2.9553   -0.7607    0.8316 H         1 MOL         0.0619
     21 H9         -5.0778    4.0360    1.4388 H         1 MOL         0.0388
     22 H10        -5.2604    3.3955   -0.1960 H         1 MOL         0.0388
     23 H11         2.2438    2.1168    1.5790 H         1 MOL         0.0536
     24 H12         2.2131    1.4960   -0.0699 H         1 MOL         0.0536
     25 H13        -4.3589    1.7942    2.2532 H         1 MOL         0.0391
     26 H14        -4.5651    1.1206    0.6340 H         1 MOL         0.0391
     27 H15         0.4659   -0.1793    0.6169 H         1 MOL         0.0371
     28 H16         0.5148    0.4505    2.2638 H         1 MOL         0.0371
     29 H17        -2.8427    2.6830   -0.2586 H         1 MOL         0.0397
     30 H18        -2.6353    3.4019    1.3274 H         1 MOL         0.0397
     31 H19        -0.2607    2.0646   -0.2266 H         1 MOL         0.0415
     32 H20        -0.1539    2.7160    1.3984 H         1 MOL         0.0415
     33 H21        -2.0628    0.4992    0.5476 H         1 MOL         0.0380
     34 H22        -1.8979    1.1221    2.1803 H         1 MOL         0.0380
@<TRIPOS>BOND
     1    1    2 1
     2    1    4 1
     3    1   12 2
     4    3    5 1
     5    4    6 1
     6    5    7 1
     7    6    8 1
     8    7    9 1
     9    8   10 1
    10    9   11 1
    11   10   11 1
    12    2   13 1
    13    2   14 1
    14    2   15 1
    15    3   16 1
    16    3   17 1
    17    3   18 1
    18    4   19 1
    19    4   20 1
    20    5   21 1
    21    5   22 1
    22    6   23 1
    23    6   24 1
    24    7   25 1
    25    7   26 1
    26    8   27 1
    27    8   28 1
    28    9   29 1
    29    9   30 1
    30   10   31 1
    31   10   32 1
    32   11   33 1
    33   11   34 1
