@<TRIPOS>MOLECULE
2,6-dimethylaniline
   20    20     0     0     0
SMALL
USER_CHARGES

@<TRIPOS>ATOM
      1 C1          1.8851   -1.0363   -0.1124 C.ar      1 MOL        -0.1666
      2 C2          0.8066   -0.4630    0.5610 C.ar      1 MOL        -0.0994
      3 C3          2.9210   -1.6309    0.6081 C.ar      1 MOL        -0.0994
      4 C4          0.7638   -0.4841    1.9551 C.ar      1 MOL        -0.1349
      5 C5          2.8783   -1.6520    2.0022 C.ar      1 MOL        -0.1349
      6 C6          1.7997   -1.0786    2.6757 C.ar      1 MOL         0.1446
      7 C7         -0.4042    0.1388    2.6486 C.3       1 MOL        -0.0461
      8 C8          4.0031   -2.2949    2.7466 C.3       1 MOL        -0.0461
      9 N1          1.7569   -1.0991    4.0890 N.pl3     1 MOL        -0.8172
     10 H1          1.9183   -1.0201   -1.1979 H         1 MOL         0.1301
     11 H2          0.0042   -0.0027   -0.0100 H         1 MOL         0.1280
     12 H3          3.7570   -2.0741    0.0740 H         1 MOL         0.1280
     13 H4         -1.1973   -0.6029    2.7956 H         1 MOL         0.0400
     14 H5         -0.1147    0.5409    3.6269 H         1 MOL         0.0400
     15 H6         -0.8098    0.9750    2.0662 H         1 MOL         0.0400
     16 H7          4.7841   -1.5575    2.9643 H         1 MOL         0.0400
     17 H8          3.6556   -2.7267    3.6929 H         1 MOL         0.0400
     18 H9          4.4459   -3.1128    2.1653 H         1 MOL         0.0400
     19 H10         1.0027   -0.6427    4.5572 H         1 MOL         0.3869
     20 H11         2.5280   -1.4861    4.5909 H         1 MOL         0.3869
@<TRIPOS>BOND
     1    1    2 ar
     2    1    3 ar
     3    2    4 ar
     4    3    5 ar
     5    4    6 ar
     6    4    7 1
     7    5    6 ar
     8    5    8 1
     9    6    9 1
    10    1   10 1
    11    2   11 1
    12    3   12 1
    13    7   13 1
    14    7   14 1
    15    7   15 1
    16    8   16 1
    17    8   17 1
    18    8   18 1
    19    9   19 1
    20    9   20 1
