@<TRIPOS>MOLECULE
1,4-dimethylpiperazine
   22    22     0     0     0
SMALL
USER_CHARGES

@<TRIPOS>ATOM
      1 C1          0.9733   -0.4226   -0.2775 C.3       1 MOL         0.1683
      2 C2          0.7469   -1.4824   -1.3611 C.3       1 MOL         0.1683
      3 C3          2.8769   -1.6606    0.5350 C.3       1 MOL         0.1683
      4 C4          2.6493   -2.7208   -0.5481 C.3       1 MOL         0.1683
      5 C5          1.8318    0.0009    1.9360 C.3       1 MOL         0.1589
      6 C6          1.7938   -3.1419   -2.7630 C.3       1 MOL         0.1589
      7 N1          1.6130   -1.0119    0.9052 N.3       1 MOL        -0.7345
      8 N2          2.0113   -2.1302   -1.7310 N.3       1 MOL        -0.7345
      9 H1          1.5814    0.3970   -0.6843 H         1 MOL         0.0362
     10 H2          0.0001    0.0003   -0.0003 H         1 MOL         0.0362
     11 H3          0.0163   -2.2224   -1.0069 H         1 MOL         0.0362
     12 H4          0.3122   -0.9898   -2.2394 H         1 MOL         0.0362
     13 H5          3.3116   -2.1531    1.4133 H         1 MOL         0.0362
     14 H6          3.6077   -0.9212    0.1801 H         1 MOL         0.0362
     15 H7          3.6222   -3.1448   -0.8248 H         1 MOL         0.0362
     16 H8          2.0399   -3.5394   -0.1414 H         1 MOL         0.0362
     17 H9          2.3081   -0.4499    2.8105 H         1 MOL         0.0314
     18 H10         0.8787    0.4408    2.2419 H         1 MOL         0.0314
     19 H11         2.4780    0.7957    1.5538 H         1 MOL         0.0314
     20 H12         2.7417   -3.6166   -3.0296 H         1 MOL         0.0314
     21 H13         1.3662   -2.6826   -3.6584 H         1 MOL         0.0314
     22 H14         1.1053   -3.9099   -2.4003 H         1 MOL         0.0314
@<TRIPOS>BOND
     1    1    2 1
     2    1    7 1
     3    2    8 1
     4    3    4 1
     5    3    7 1
     6    4    8 1
     7    5    7 1
     8    6    8 1
     9    1    9 1
    10    1   10 1
    11    2   11 1
    12    2   12 1
    13    3   13 1
    14    3   14 1
    15    4   15 1
    16    4   16 1
    17    5   17 1
    18    5   18 1
    19    5   19 1
    20    6   20 1
    21    6   21 1
    22    6   22 1
