@<TRIPOS>MOLECULE
(3R)-2,3-dimethylpentane
   23    22     0     0     0
SMALL
USER_CHARGES

@<TRIPOS>ATOM
      1 C1         -1.3061   -0.8373   -1.3650 C.3       1 MOL        -0.0918
      2 C2          2.9709    0.2099   -0.3558 C.3       1 MOL        -0.0899
      3 C3          1.5505   -1.4931    0.8052 C.3       1 MOL        -0.0899
      4 C4          0.5704    1.4923    1.1226 C.3       1 MOL        -0.0902
      5 C5         -0.9814   -0.0321   -0.1150 C.3       1 MOL        -0.0782
      6 C6          1.5775   -0.4214   -0.2915 C.3       1 MOL        -0.0617
      7 C7          0.4243    0.6095   -0.1250 C.3       1 MOL        -0.0571
      8 H1         -1.2465   -0.1948   -2.2496 H         1 MOL         0.0328
      9 H2         -0.5992   -1.6592   -1.5098 H         1 MOL         0.0328
     10 H3         -2.3183   -1.2509   -1.3152 H         1 MOL         0.0328
     11 H4          3.2044    0.7624    0.5588 H         1 MOL         0.0329
     12 H5          3.0290    0.9225   -1.1862 H         1 MOL         0.0329
     13 H6          3.7509   -0.5415   -0.5126 H         1 MOL         0.0329
     14 H7          1.7058   -1.0363    1.7889 H         1 MOL         0.0329
     15 H8          2.3466   -2.2291    0.6530 H         1 MOL         0.0329
     16 H9          0.5926   -2.0215    0.8380 H         1 MOL         0.0329
     17 H10         0.5432    0.9005    2.0418 H         1 MOL         0.0335
     18 H11         1.5034    2.0638    1.1073 H         1 MOL         0.0335
     19 H12        -0.2550    2.2108    1.1825 H         1 MOL         0.0335
     20 H13        -1.0518   -0.7090    0.7463 H         1 MOL         0.0379
     21 H14        -1.7534    0.7315    0.0345 H         1 MOL         0.0379
     22 H15         1.4164   -0.9543   -1.2370 H         1 MOL         0.0439
     23 H16         0.4622    1.2819   -0.9938 H         1 MOL         0.0429
@<TRIPOS>BOND
     1    1    5 1
     2    2    6 1
     3    3    6 1
     4    4    7 1
     5    5    7 1
     6    6    7 1
     7    1    8 1
     8    1    9 1
     9    1   10 1
    10    2   11 1
    11    2   12 1
    12    2   13 1
    13    3   14 1
    14    3   15 1
    15    3   16 1
    16    4   17 1
    17    4   18 1
    18    4   19 1
    19    5   20 1
    20    5   21 1
    21    6   22 1
    22    7   23 1
