@<TRIPOS>MOLECULE
1-bromopropane
   11    10     0     0     0
SMALL
USER_CHARGES

@<TRIPOS>ATOM
      1 C1         -0.8961    0.1363   -0.9997 C.3       1 MOL        -0.0948
      2 C2         -0.3515    0.1886    0.4185 C.3       1 MOL        -0.0832
      3 C3          1.0884   -0.2893    0.4719 C.3       1 MOL        -0.0072
      4 Br1         1.7612   -0.1528    2.2935 Br        1 MOL        -0.1802
      5 H1         -0.2802    0.7493   -1.6653 H         1 MOL         0.0377
      6 H2         -0.8937   -0.8890   -1.3833 H         1 MOL         0.0377
      7 H3         -1.9219    0.5166   -1.0402 H         1 MOL         0.0377
      8 H4         -0.9818   -0.4310    1.0679 H         1 MOL         0.0544
      9 H5         -0.4249    1.2167    0.7933 H         1 MOL         0.0544
     10 H6          1.7467    0.3225   -0.1510 H         1 MOL         0.0718
     11 H7          1.1828   -1.3393    0.1817 H         1 MOL         0.0718
@<TRIPOS>BOND
     1    1    2 1
     2    2    3 1
     3    3    4 1
     4    1    5 1
     5    1    6 1
     6    1    7 1
     7    2    8 1
     8    2    9 1
     9    3   10 1
    10    3   11 1
