@<TRIPOS>MOLECULE
1,2-dimethoxybenzene
   20    20     0     0     0
SMALL
USER_CHARGES

@<TRIPOS>ATOM
      1 C1          1.8851   -1.0363   -0.1124 C.ar      1 MOL        -0.1303
      2 C2          0.8066   -0.4630    0.5610 C.ar      1 MOL        -0.1301
      3 C3          2.9210   -1.6309    0.6081 C.ar      1 MOL        -0.1788
      4 C4          0.7638   -0.4841    1.9551 C.ar      1 MOL        -0.1788
      5 C5          2.8783   -1.6520    2.0022 C.ar      1 MOL         0.1013
      6 C6          1.7997   -1.0786    2.6757 C.ar      1 MOL         0.1013
      7 C7          4.9612   -2.7974    1.9302 C.3       1 MOL         0.1101
      8 C8          0.6102   -0.4844    4.6474 C.3       1 MOL         0.1101
      9 O1          3.8966   -2.2346    2.6945 O.3       1 MOL        -0.3041
     10 O2          1.7470   -1.0918    4.0368 O.3       1 MOL        -0.3041
     11 H1          1.9183   -1.0200   -1.1982 H         1 MOL         0.1325
     12 H2          0.0002   -0.0001    0.0001 H         1 MOL         0.1325
     13 H3          3.7584   -2.0759    0.0774 H         1 MOL         0.1392
     14 H4         -0.0785   -0.0342    2.4734 H         1 MOL         0.1392
     15 H5          5.7059   -3.2287    2.6037 H         1 MOL         0.0433
     16 H6          5.4190   -2.0198    1.3136 H         1 MOL         0.0433
     17 H7          4.5593   -3.5820    1.2848 H         1 MOL         0.0433
     18 H8          0.6933   -0.5639    5.7341 H         1 MOL         0.0433
     19 H9         -0.2994   -0.9833    4.3034 H         1 MOL         0.0433
     20 H10         0.5749    0.5699    4.3631 H         1 MOL         0.0433
@<TRIPOS>BOND
     1    1    2 ar
     2    1    3 ar
     3    2    4 ar
     4    3    5 ar
     5    4    6 ar
     6    5    6 ar
     7    5    9 1
     8    6   10 1
     9    7    9 1
    10    8   10 1
    11    1   11 1
    12    2   12 1
    13    3   13 1
    14    4   14 1
    15    7   15 1
    16    7   16 1
    17    7   17 1
    18    8   18 1
    19    8   19 1
    20    8   20 1
