@<TRIPOS>MOLECULE
3-chloropyridine
   11    11     0     0     0
SMALL
USER_CHARGES

@<TRIPOS>ATOM
      1 C1          0.2265   -0.4197    0.9733 C.ar      1 MOL        -0.2362
      2 C2          1.3879   -0.0684    1.6522 C.ar      1 MOL        -0.0906
      3 C3         -0.6317   -1.3224    1.5803 C.ar      1 MOL         0.3937
      4 C4          0.7299   -1.5161    3.4206 C.ar      1 MOL         0.4045
      5 C5          1.6520   -0.6227    2.8997 C.ar      1 MOL        -0.1063
      6 N1         -0.4092   -1.8816    2.7908 N.ar      1 MOL        -0.6559
      7 Cl1         3.0741   -0.2130    3.7662 Cl        1 MOL        -0.0737
      8 H1          0.0000   -0.0004   -0.0003 H         1 MOL         0.1502
      9 H2          2.0780    0.6376    1.1980 H         1 MOL         0.1509
     10 H3         -1.5509   -1.6290    1.0922 H         1 MOL         0.0266
     11 H4          0.8782   -1.9829    4.3898 H         1 MOL         0.0368
@<TRIPOS>BOND
     1    1    2 ar
     2    1    3 ar
     3    2    5 ar
     4    3    6 ar
     5    4    5 ar
     6    4    6 ar
     7    5    7 1
     8    1    8 1
     9    2    9 1
    10    3   10 1
    11    4   11 1
