@<TRIPOS>MOLECULE
2-methoxy-4-methyl-phenol
   20    20     0     0     0
SMALL
USER_CHARGES

@<TRIPOS>ATOM
      1 C1          1.8851   -1.0363   -0.1124 C.ar      1 MOL        -0.1269
      2 C2          0.8066   -0.4630    0.5610 C.ar      1 MOL        -0.1827
      3 C3          2.8783   -1.6520    2.0022 C.ar      1 MOL        -0.1787
      4 C4          2.9210   -1.6309    0.6081 C.ar      1 MOL        -0.0768
      5 C5          0.7638   -0.4841    1.9551 C.ar      1 MOL         0.0967
      6 C6          1.7997   -1.0786    2.6757 C.ar      1 MOL         0.1039
      7 C7          4.0730   -2.2461   -0.1119 C.3       1 MOL        -0.0493
      8 C8          2.8671   -1.7314    4.6981 C.3       1 MOL         0.1101
      9 O1         -0.2952    0.0794    2.6009 O.3       1 MOL        -0.4752
     10 O2          1.7695   -1.1047    4.0374 O.3       1 MOL        -0.3044
     11 H1          1.9092   -1.0167   -1.1987 H         1 MOL         0.1318
     12 H2          0.0033   -0.0012   -0.0065 H         1 MOL         0.1366
     13 H3          3.6842   -2.1153    2.5663 H         1 MOL         0.1401
     14 H4          4.8655   -1.5042   -0.2691 H         1 MOL         0.0438
     15 H5          4.4923   -3.0885    0.4534 H         1 MOL         0.0438
     16 H6          3.7669   -2.6409   -1.0895 H         1 MOL         0.0438
     17 H7          2.7181   -1.6831    5.7796 H         1 MOL         0.0435
     18 H8          3.7959   -1.2244    4.4246 H         1 MOL         0.0435
     19 H9          2.9196   -2.7772    4.3863 H         1 MOL         0.0435
     20 H10        -0.9227    0.4462    1.9585 H         1 MOL         0.4128
@<TRIPOS>BOND
     1    1    2 ar
     2    1    4 ar
     3    2    5 ar
     4    3    4 ar
     5    3    6 ar
     6    4    7 1
     7    5    6 ar
     8    5    9 1
     9    6   10 1
    10    8   10 1
    11    1   11 1
    12    2   12 1
    13    3   13 1
    14    7   14 1
    15    7   15 1
    16    7   16 1
    17    8   17 1
    18    8   18 1
    19    8   19 1
    20    9   20 1
