@<TRIPOS>MOLECULE
1-ethyl-4-methyl-benzene
   21    21     0     0     0
SMALL
USER_CHARGES

@<TRIPOS>ATOM
      1 C1          1.8851   -1.0363   -0.1124 C.ar      1 MOL        -0.1288
      2 C2          2.8783   -1.6520    2.0022 C.ar      1 MOL        -0.1288
      3 C3          0.8066   -0.4630    0.5610 C.ar      1 MOL        -0.1243
      4 C4          1.7997   -1.0786    2.6757 C.ar      1 MOL        -0.1243
      5 C5          2.9210   -1.6309    0.6081 C.ar      1 MOL        -0.0808
      6 C6          0.7638   -0.4841    1.9551 C.ar      1 MOL        -0.0819
      7 C7          4.0745   -2.2441   -0.1111 C.3       1 MOL        -0.0529
      8 C8         -0.1553    1.6052    2.9926 C.3       1 MOL        -0.0888
      9 C9         -0.3890    0.1306    2.6744 C.3       1 MOL        -0.0374
     10 H1          1.9098   -1.0158   -1.1988 H         1 MOL         0.1298
     11 H2          3.6818   -2.1121    2.5715 H         1 MOL         0.1298
     12 H3          0.0048   -0.0006   -0.0085 H         1 MOL         0.1302
     13 H4          1.7742   -1.0996    3.7620 H         1 MOL         0.1302
     14 H5          4.8665   -1.5012   -0.2664 H         1 MOL         0.0433
     15 H6          4.4940   -3.0867    0.4537 H         1 MOL         0.0433
     16 H7          3.7702   -2.6379   -1.0897 H         1 MOL         0.0433
     17 H8          0.7552    1.7395    3.5864 H         1 MOL         0.0357
     18 H9         -0.9949    2.0166    3.5615 H         1 MOL         0.0357
     19 H10        -0.0473    2.1927    2.0745 H         1 MOL         0.0357
     20 H11        -1.3102    0.0328    2.0780 H         1 MOL         0.0454
     21 H12        -0.5902   -0.4123    3.6120 H         1 MOL         0.0454
@<TRIPOS>BOND
     1    1    3 ar
     2    1    5 ar
     3    2    4 ar
     4    2    5 ar
     5    3    6 ar
     6    4    6 ar
     7    5    7 1
     8    6    9 1
     9    8    9 1
    10    1   10 1
    11    2   11 1
    12    3   12 1
    13    4   13 1
    14    7   14 1
    15    7   15 1
    16    7   16 1
    17    8   17 1
    18    8   18 1
    19    8   19 1
    20    9   20 1
    21    9   21 1
