@<TRIPOS>MOLECULE
3-ethylpyridine
   17    17     0     0     0
SMALL
USER_CHARGES

@<TRIPOS>ATOM
      1 C1          0.2265   -0.4197    0.9733 C.ar      1 MOL        -0.2436
      2 C2          1.3879   -0.0684    1.6522 C.ar      1 MOL        -0.0946
      3 C3         -0.6317   -1.3224    1.5803 C.ar      1 MOL         0.3883
      4 C4          0.7299   -1.5161    3.4206 C.ar      1 MOL         0.3964
      5 C5          1.6520   -0.6227    2.8997 C.ar      1 MOL        -0.1901
      6 C6          2.6848    0.9416    4.5649 C.3       1 MOL        -0.0904
      7 C7          2.8852   -0.2665    3.6509 C.3       1 MOL        -0.0343
      8 N1         -0.4092   -1.8816    2.7908 N.ar      1 MOL        -0.6647
      9 H1         -0.0000   -0.0001   -0.0002 H         1 MOL         0.1431
     10 H2          2.0808    0.6373    1.2020 H         1 MOL         0.1360
     11 H3         -1.5507   -1.6289    1.0916 H         1 MOL         0.0214
     12 H4          0.8820   -1.9806    4.3900 H         1 MOL         0.0215
     13 H5          2.3416    1.8115    3.9946 H         1 MOL         0.0378
     14 H6          3.6201    1.2117    5.0651 H         1 MOL         0.0378
     15 H7          1.9367    0.7292    5.3362 H         1 MOL         0.0378
     16 H8          3.2299   -1.1204    4.2587 H         1 MOL         0.0488
     17 H9          3.7155   -0.0543    2.9559 H         1 MOL         0.0488
@<TRIPOS>BOND
     1    1    2 ar
     2    1    3 ar
     3    2    5 ar
     4    3    8 ar
     5    4    5 ar
     6    4    8 ar
     7    5    7 1
     8    6    7 1
     9    1    9 1
    10    2   10 1
    11    3   11 1
    12    4   12 1
    13    6   13 1
    14    6   14 1
    15    6   15 1
    16    7   16 1
    17    7   17 1
