@<TRIPOS>MOLECULE
ethyl 4-hydroxybenzoate
   22    22     0     0     0
SMALL
USER_CHARGES

@<TRIPOS>ATOM
      1 C1          1.8851   -1.0363   -0.1124 C.ar      1 MOL        -0.0521
      2 C2          2.8783   -1.6520    2.0022 C.ar      1 MOL        -0.0521
      3 C3          0.8066   -0.4630    0.5610 C.ar      1 MOL        -0.1905
      4 C4          1.7997   -1.0786    2.6757 C.ar      1 MOL        -0.1905
      5 C5          2.9210   -1.6309    0.6081 C.ar      1 MOL        -0.1467
      6 C6          0.7638   -0.4841    1.9551 C.ar      1 MOL         0.1447
      7 C7          4.0457   -2.2285   -0.0938 C.2       1 MOL         0.6512
      8 C8          6.9983   -3.8979    1.3186 C.3       1 MOL        -0.0999
      9 C9          6.1157   -3.3767    0.2045 C.3       1 MOL         0.1370
     10 O1          4.1678   -2.2560   -1.3257 O.2       1 MOL        -0.5296
     11 O2         -0.2886    0.0750    2.6125 O.3       1 MOL        -0.4927
     12 O3          4.9583   -2.7585    0.7770 O.3       1 MOL        -0.4362
     13 H1          1.9078   -1.0136   -1.1990 H         1 MOL         0.1448
     14 H2          3.6806   -2.1126    2.5729 H         1 MOL         0.1448
     15 H3          0.0026   -0.0015   -0.0059 H         1 MOL         0.1490
     16 H4          1.7717   -1.0984    3.7617 H         1 MOL         0.1490
     17 H5          7.3246   -3.0835    1.9714 H         1 MOL         0.0483
     18 H6          6.4630   -4.6402    1.9199 H         1 MOL         0.0483
     19 H7          7.8822   -4.3979    0.9087 H         1 MOL         0.0483
     20 H8          5.7929   -4.1961   -0.4446 H         1 MOL         0.0506
     21 H9          6.6517   -2.6347   -0.3947 H         1 MOL         0.0506
     22 H10        -0.9231    0.4452    1.9782 H         1 MOL         0.4236
@<TRIPOS>BOND
     1    1    3 ar
     2    1    5 ar
     3    2    4 ar
     4    2    5 ar
     5    3    6 ar
     6    4    6 ar
     7    5    7 1
     8    6   11 1
     9    7   10 2
    10    7   12 1
    11    8    9 1
    12    9   12 1
    13    1   13 1
    14    2   14 1
    15    3   15 1
    16    4   16 1
    17    8   17 1
    18    8   18 1
    19    8   19 1
    20    9   20 1
    21    9   21 1
    22   11   22 1
