@<TRIPOS>MOLECULE
(2S)-2-chlorobutane
   14    13     0     0     0
SMALL
USER_CHARGES

@<TRIPOS>ATOM
      1 C1         -0.4674   -2.8609    0.6123 C.3       1 MOL        -0.0972
      2 C2          0.2549    0.4794   -1.2583 C.3       1 MOL        -0.1045
      3 C3          0.2150   -1.8550   -0.3056 C.3       1 MOL        -0.0859
      4 C4         -0.4823   -0.4901   -0.3421 C.3       1 MOL         0.0614
      5 Cl1        -0.5812    0.2232    1.2963 Cl        1 MOL        -0.2112
      6 H1         -0.5419   -2.4527    1.6253 H         1 MOL         0.0405
      7 H2          0.0921   -3.7989    0.6742 H         1 MOL         0.0405
      8 H3         -1.4805   -3.0848    0.2635 H         1 MOL         0.0405
      9 H4          1.2907    0.6200   -0.9306 H         1 MOL         0.0483
     10 H5          0.2823    0.0960   -2.2839 H         1 MOL         0.0483
     11 H6         -0.2310    1.4612   -1.2796 H         1 MOL         0.0483
     12 H7          0.2829   -2.2767   -1.3160 H         1 MOL         0.0505
     13 H8          1.2451   -1.7199    0.0471 H         1 MOL         0.0505
     14 H9         -1.5117   -0.6069   -0.6979 H         1 MOL         0.0698
@<TRIPOS>BOND
     1    1    3 1
     2    2    4 1
     3    3    4 1
     4    4    5 1
     5    1    6 1
     6    1    7 1
     7    1    8 1
     8    2    9 1
     9    2   10 1
    10    2   11 1
    11    3   12 1
    12    3   13 1
    13    4   14 1
