@<TRIPOS>MOLECULE
3-chloroaniline
   14    14     0     0     0
SMALL
USER_CHARGES

@<TRIPOS>ATOM
      1 C1          1.8851   -1.0363   -0.1124 C.ar      1 MOL        -0.0827
      2 C2          0.8066   -0.4630    0.5610 C.ar      1 MOL        -0.1964
      3 C3          2.9210   -1.6309    0.6081 C.ar      1 MOL        -0.1702
      4 C4          1.7997   -1.0786    2.6757 C.ar      1 MOL        -0.1912
      5 C5          0.7638   -0.4841    1.9551 C.ar      1 MOL         0.1557
      6 C6          2.8783   -1.6520    2.0022 C.ar      1 MOL         0.0578
      7 N1         -0.3269    0.0961    2.6357 N.pl3     1 MOL        -0.8252
      8 Cl1         4.1572   -2.3848    2.8904 Cl        1 MOL        -0.1005
      9 H1          1.9181   -1.0190   -1.1979 H         1 MOL         0.1358
     10 H2          0.0045   -0.0026   -0.0099 H         1 MOL         0.1331
     11 H3          3.7553   -2.0737    0.0701 H         1 MOL         0.1465
     12 H4          1.7624   -1.0925    3.7630 H         1 MOL         0.1464
     13 H5         -1.0390    0.5605    2.1094 H         1 MOL         0.3955
     14 H6         -0.3228    0.1162    3.6354 H         1 MOL         0.3955
@<TRIPOS>BOND
     1    1    2 ar
     2    1    3 ar
     3    2    5 ar
     4    3    6 ar
     5    4    5 ar
     6    4    6 ar
     7    5    7 1
     8    6    8 1
     9    1    9 1
    10    2   10 1
    11    3   11 1
    12    4   12 1
    13    7   13 1
    14    7   14 1
