@<TRIPOS>MOLECULE
1,2-dichloroethane
    8     7     0     0     0
SMALL
USER_CHARGES

@<TRIPOS>ATOM
      1 C1          0.4803    0.4213    0.4301 C.3       1 MOL         0.0214
      2 C2         -0.5454   -0.5059   -0.1994 C.3       1 MOL         0.0214
      3 Cl1         1.9125    0.6263   -0.6070 Cl        1 MOL        -0.1813
      4 Cl2        -1.1473    0.1277   -1.7502 Cl        1 MOL        -0.1813
      5 H1          0.0600    1.4124    0.6275 H         1 MOL         0.0799
      6 H2          0.8293    0.0039    1.3793 H         1 MOL         0.0799
      7 H3         -1.4110   -0.6105    0.4615 H         1 MOL         0.0799
      8 H4         -0.1309   -1.5028   -0.3786 H         1 MOL         0.0799
@<TRIPOS>BOND
     1    1    2 1
     2    1    3 1
     3    2    4 1
     4    1    5 1
     5    1    6 1
     6    2    7 1
     7    2    8 1
