@<TRIPOS>MOLECULE
1,4-dichlorobutane
   14    13     0     0     0
SMALL
USER_CHARGES

@<TRIPOS>ATOM
      1 C1         -0.6108   -0.4634    0.0323 C.3       1 MOL        -0.0930
      2 C2          0.5769    0.5054   -0.0200 C.3       1 MOL        -0.0930
      3 C3         -0.8926   -0.9912    1.4362 C.3       1 MOL         0.0387
      4 C4          0.8129    1.0904   -1.4097 C.3       1 MOL         0.0387
      5 Cl1         0.4879   -1.8965    2.0981 Cl        1 MOL        -0.1939
      6 Cl2         1.1753   -0.1698   -2.6114 Cl        1 MOL        -0.1939
      7 H1         -0.4481   -1.3073   -0.6480 H         1 MOL         0.0576
      8 H2         -1.5086    0.0584   -0.3216 H         1 MOL         0.0576
      9 H3          1.4915    0.0106    0.3267 H         1 MOL         0.0576
     10 H4          0.3864    1.3361    0.6709 H         1 MOL         0.0576
     11 H5         -1.1233   -0.1747    2.1273 H         1 MOL         0.0666
     12 H6         -1.7473   -1.6738    1.4161 H         1 MOL         0.0666
     13 H7         -0.0618    1.6477   -1.7585 H         1 MOL         0.0666
     14 H8          1.6674    1.7734   -1.3893 H         1 MOL         0.0666
@<TRIPOS>BOND
     1    1    2 1
     2    1    3 1
     3    2    4 1
     4    3    5 1
     5    4    6 1
     6    1    7 1
     7    1    8 1
     8    2    9 1
     9    2   10 1
    10    3   11 1
    11    3   12 1
    12    4   13 1
    13    4   14 1
