@<TRIPOS>MOLECULE
hexylbenzene
   30    30     0     0     0
SMALL
USER_CHARGES

@<TRIPOS>ATOM
      1 C1         -8.1959   -1.8785   -5.4124 C.ar      1 MOL        -0.1339
      2 C2         -7.0778   -2.5258   -5.9382 C.ar      1 MOL        -0.1285
      3 C3         -8.0483   -0.6623   -4.7455 C.ar      1 MOL        -0.1285
      4 C4         -5.8121   -1.9570   -5.7971 C.ar      1 MOL        -0.1281
      5 C5         -6.7825   -0.0935   -4.6043 C.ar      1 MOL        -0.1281
      6 C6         -5.6644   -0.7408   -5.1301 C.ar      1 MOL        -0.0765
      7 C7          0.5127   -0.1990   -0.8196 C.3       1 MOL        -0.0924
      8 C8         -4.3060   -0.1298   -4.9781 C.3       1 MOL        -0.0375
      9 C9         -0.1514    0.2041   -2.1266 C.3       1 MOL        -0.0793
     10 C10        -3.6163   -0.5929   -3.6930 C.3       1 MOL        -0.0719
     11 C11        -1.5373   -0.4248   -2.2676 C.3       1 MOL        -0.0778
     12 C12        -2.2159    0.0100   -3.5677 C.3       1 MOL        -0.0828
     13 H1         -9.1816   -2.3209   -5.5236 H         1 MOL         0.1291
     14 H2         -7.1927   -3.4723   -6.4585 H         1 MOL         0.1302
     15 H3         -8.9187   -0.1575   -4.3369 H         1 MOL         0.1302
     16 H4         -4.9465   -2.4686   -6.2098 H         1 MOL         0.1312
     17 H5         -6.6770    0.8543   -4.0831 H         1 MOL         0.1312
     18 H6         -0.1085    0.1018    0.0297 H         1 MOL         0.0323
     19 H7          0.6543   -1.2834   -0.7696 H         1 MOL         0.0323
     20 H8          1.4906    0.2809   -0.7120 H         1 MOL         0.0323
     21 H9         -4.4002    0.9635   -4.9830 H         1 MOL         0.0469
     22 H10        -3.6940   -0.3916   -5.8505 H         1 MOL         0.0469
     23 H11         0.4851   -0.1054   -2.9638 H         1 MOL         0.0384
     24 H12        -0.2323    1.2966   -2.1668 H         1 MOL         0.0384
     25 H13        -4.2186   -0.3058   -2.8216 H         1 MOL         0.0413
     26 H14        -3.5464   -1.6881   -3.6808 H         1 MOL         0.0413
     27 H15        -1.4485   -1.5179   -2.2470 H         1 MOL         0.0384
     28 H16        -2.1609   -0.1351   -1.4130 H         1 MOL         0.0384
     29 H17        -1.6043   -0.3011   -4.4233 H         1 MOL         0.0431
     30 H18        -2.2832    1.1043   -3.5985 H         1 MOL         0.0431
@<TRIPOS>BOND
     1    1    2 ar
     2    1    3 ar
     3    2    4 ar
     4    3    5 ar
     5    4    6 ar
     6    5    6 ar
     7    6    8 1
     8    7    9 1
     9    8   10 1
    10    9   11 1
    11   10   12 1
    12   11   12 1
    13    1   13 1
    14    2   14 1
    15    3   15 1
    16    4   16 1
    17    5   17 1
    18    7   18 1
    19    7   19 1
    20    7   20 1
    21    8   21 1
    22    8   22 1
    23    9   23 1
    24    9   24 1
    25   10   25 1
    26   10   26 1
    27   11   27 1
    28   11   28 1
    29   12   29 1
    30   12   30 1
