@<TRIPOS>MOLECULE
1-methylimidazole
   12    12     0     0     0
SMALL
USER_CHARGES

@<TRIPOS>ATOM
      1 C1          1.9499   -0.7740   -0.8259 C.2       1 MOL         0.2891
      2 C2          0.6549   -0.7784   -0.3640 C.2       1 MOL        -0.2558
      3 C3          1.3133   -2.8020   -0.9371 C.2       1 MOL         0.3856
      4 C4         -1.0301   -2.6104   -0.0685 C.3       1 MOL         0.0244
      5 N1          2.3537   -2.0366   -1.1813 N.2       1 MOL        -0.6655
      6 N2          0.2603   -2.0844   -0.4416 N.pl3     1 MOL        -0.2112
      7 H1          2.6121    0.0743   -0.9207 H         1 MOL         0.0407
      8 H2          0.0050    0.0054   -0.0008 H         1 MOL         0.1765
      9 H3          1.2636   -3.8703   -1.0975 H         1 MOL         0.0589
     10 H4         -1.6774   -2.5715   -0.9486 H         1 MOL         0.0524
     11 H5         -0.9168   -3.6416    0.2774 H         1 MOL         0.0524
     12 H6         -1.4469   -2.0048    0.7411 H         1 MOL         0.0524
@<TRIPOS>BOND
     1    1    2 2
     2    1    5 1
     3    2    6 1
     4    3    5 2
     5    3    6 1
     6    4    6 1
     7    1    7 1
     8    2    8 1
     9    3    9 1
    10    4   10 1
    11    4   11 1
    12    4   12 1
