@<TRIPOS>MOLECULE
1-(4-methoxyphenyl)ethanone
   21    21     0     0     0
SMALL
USER_CHARGES

@<TRIPOS>ATOM
      1 C1          1.8851   -1.0363   -0.1124 C.ar      1 MOL        -0.0626
      2 C2          2.8783   -1.6520    2.0022 C.ar      1 MOL        -0.0626
      3 C3          0.8066   -0.4630    0.5610 C.ar      1 MOL        -0.1871
      4 C4          1.7997   -1.0786    2.6757 C.ar      1 MOL        -0.1871
      5 C5          2.9210   -1.6309    0.6081 C.ar      1 MOL        -0.1996
      6 C6          0.7638   -0.4841    1.9551 C.ar      1 MOL         0.1413
      7 C7          4.0457   -2.2285   -0.0938 C.2       1 MOL         0.5819
      8 C8          3.7870   -2.8023   -1.4566 C.3       1 MOL        -0.1989
      9 C9         -1.3132    0.6656    1.8143 C.3       1 MOL         0.1120
     10 O1          5.1945   -2.3039    0.3473 O.2       1 MOL        -0.5232
     11 O2         -0.2886    0.0750    2.6125 O.3       1 MOL        -0.3227
     12 H1          1.9078   -1.0136   -1.1990 H         1 MOL         0.1399
     13 H2          3.6806   -2.1126    2.5729 H         1 MOL         0.1399
     14 H3          0.0026   -0.0015   -0.0059 H         1 MOL         0.1476
     15 H4          1.7717   -1.0984    3.7617 H         1 MOL         0.1476
     16 H5          3.9240   -2.0816   -2.2782 H         1 MOL         0.0646
     17 H6          2.7794   -3.2338   -1.5606 H         1 MOL         0.0646
     18 H7          4.4698   -3.6304   -1.7175 H         1 MOL         0.0646
     19 H8         -2.0917    1.0740    2.4632 H         1 MOL         0.0466
     20 H9         -1.7382   -0.0896    1.1482 H         1 MOL         0.0466
     21 H10        -0.8791    1.4716    1.2180 H         1 MOL         0.0466
@<TRIPOS>BOND
     1    1    3 ar
     2    1    5 ar
     3    2    4 ar
     4    2    5 ar
     5    3    6 ar
     6    4    6 ar
     7    5    7 1
     8    6   11 1
     9    7    8 1
    10    7   10 2
    11    9   11 1
    12    1   12 1
    13    2   13 1
    14    3   14 1
    15    4   15 1
    16    8   16 1
    17    8   17 1
    18    8   18 1
    19    9   19 1
    20    9   20 1
    21    9   21 1
