@<TRIPOS>MOLECULE
4-nitrophenol
   15    15     0     0     0
SMALL
USER_CHARGES

@<TRIPOS>ATOM
      1 C1          1.8851   -1.0363   -0.1124 C.ar      1 MOL        -0.0276
      2 C2          2.8783   -1.6520    2.0022 C.ar      1 MOL        -0.0276
      3 C3          0.8066   -0.4630    0.5610 C.ar      1 MOL        -0.2003
      4 C4          1.7997   -1.0786    2.6757 C.ar      1 MOL        -0.2003
      5 C5          2.9210   -1.6309    0.6081 C.ar      1 MOL        -0.2202
      6 C6          0.7638   -0.4841    1.9551 C.ar      1 MOL         0.1708
      7 N1          4.0190   -2.2148   -0.0772 N.pl3     1 MOL         0.3190
      8 O1          4.0382   -2.1852   -1.3314 O.3       1 MOL        -0.2124
      9 O2          4.9403   -2.7442    0.5902 O.2       1 MOL        -0.2124
     10 O3         -0.2886    0.0754    2.6122 O.3       1 MOL        -0.4831
     11 H1          1.9063   -1.0127   -1.1992 H         1 MOL         0.1739
     12 H2          3.6786   -2.1125    2.5763 H         1 MOL         0.1739
     13 H3          0.0028   -0.0010   -0.0058 H         1 MOL         0.1581
     14 H4          1.7719   -1.0986    3.7617 H         1 MOL         0.1581
     15 H5         -0.1745   -0.0183    3.5714 H         1 MOL         0.4302
@<TRIPOS>BOND
     1    1    3 ar
     2    1    5 ar
     3    2    4 ar
     4    2    5 ar
     5    3    6 ar
     6    4    6 ar
     7    5    7 1
     8    6   10 1
     9    7    8 1
    10    7    9 2
    11    1   11 1
    12    2   12 1
    13    3   13 1
    14    4   14 1
    15   10   15 1
