@<TRIPOS>MOLECULE
2-chloroaniline
   14    14     0     0     0
SMALL
USER_CHARGES

@<TRIPOS>ATOM
      1 C1          1.8851   -1.0363   -0.1124 C.ar      1 MOL        -0.0874
      2 C2          0.8066   -0.4630    0.5610 C.ar      1 MOL        -0.1711
      3 C3          2.9210   -1.6309    0.6081 C.ar      1 MOL        -0.1910
      4 C4          0.7638   -0.4841    1.9551 C.ar      1 MOL        -0.0826
      5 C5          2.8783   -1.6520    2.0022 C.ar      1 MOL         0.1606
      6 C6          1.7997   -1.0786    2.6757 C.ar      1 MOL        -0.0521
      7 N1          3.9426   -2.2616    2.7041 N.pl3     1 MOL        -0.8248
      8 Cl1         1.7069   -1.0827    4.4006 Cl        1 MOL        -0.1055
      9 H1          1.9183   -1.0197   -1.1979 H         1 MOL         0.1340
     10 H2          0.0001   -0.0002   -0.0002 H         1 MOL         0.1358
     11 H3          3.7562   -2.0743    0.0718 H         1 MOL         0.1347
     12 H4         -0.0839   -0.0329    2.4644 H         1 MOL         0.1450
     13 H5          4.6744   -2.7031    2.1876 H         1 MOL         0.4022
     14 H6          3.8953   -2.3218    3.6998 H         1 MOL         0.4022
@<TRIPOS>BOND
     1    1    2 ar
     2    1    3 ar
     3    2    4 ar
     4    3    5 ar
     5    4    6 ar
     6    5    6 ar
     7    5    7 1
     8    6    8 1
     9    1    9 1
    10    2   10 1
    11    3   11 1
    12    4   12 1
    13    7   13 1
    14    7   14 1
