@<TRIPOS>MOLECULE
(1R,2S,3S,4R,7S,8R)-1,2,5,6,7,8,9,9-octachlorotricyclo[BLAH.BLAH.BLAH.BLAH]dec-5-ene
   24    26     0     0     0
SMALL
USER_CHARGES

@<TRIPOS>ATOM
      1 C1         -0.7876    1.1384   -1.4716 C.2       1 MOL        -0.0447
      2 C2         -0.2332    0.0436   -2.0063 C.2       1 MOL        -0.0447
      3 C3         -0.3570   -1.4058    2.5072 C.3       1 MOL        -0.1015
      4 C4         -1.1745    0.0525    0.6720 C.3       1 MOL        -0.0671
      5 C5         -0.5128   -1.2530    0.0343 C.3       1 MOL        -0.0671
      6 C6         -1.2856   -0.2475    2.1798 C.3       1 MOL         0.0547
      7 C7         -0.2895   -2.2121    1.2200 C.3       1 MOL         0.0547
      8 C8         -0.3454    1.2078   -0.0095 C.3       1 MOL         0.0891
      9 C9          0.5886   -0.6354   -0.9099 C.3       1 MOL         0.0891
     10 C10         1.0954    0.6467   -0.1874 C.3       1 MOL         0.1395
     11 Cl1        -1.8842    2.2074   -2.1972 Cl        1 MOL        -0.0030
     12 Cl2        -0.4694   -0.5864   -3.5617 Cl        1 MOL        -0.0030
     13 Cl3        -1.0741    1.0924    3.3101 Cl        1 MOL        -0.1453
     14 Cl4         1.1324   -3.2582    1.1846 Cl        1 MOL        -0.1453
     15 Cl5        -0.4416    2.8164    0.6789 Cl        1 MOL        -0.0573
     16 Cl6         1.8435   -1.6930   -1.5244 Cl        1 MOL        -0.0573
     17 Cl7         2.0241    0.3911    1.2994 Cl        1 MOL        -0.0868
     18 Cl8         2.1710    1.6953   -1.2183 Cl        1 MOL        -0.0868
     19 H1          0.6234   -1.0795    2.8567 H         1 MOL         0.0818
     20 H2         -0.7694   -2.0134    3.3228 H         1 MOL         0.0818
     21 H3         -2.2132    0.1320    0.3139 H         1 MOL         0.0837
     22 H4         -1.2596   -1.7498   -0.6053 H         1 MOL         0.0837
     23 H5         -2.3094   -0.6027    2.3565 H         1 MOL         0.0759
     24 H6         -1.1435   -2.9022    1.2333 H         1 MOL         0.0759
@<TRIPOS>BOND
     1    1    2 2
     2    1    8 1
     3    1   11 1
     4    2    9 1
     5    2   12 1
     6    3    6 1
     7    3    7 1
     8    4    5 1
     9    4    6 1
    10    4    8 1
    11    5    7 1
    12    5    9 1
    13    6   13 1
    14    7   14 1
    15    8   10 1
    16    8   15 1
    17    9   10 1
    18    9   16 1
    19   10   17 1
    20   10   18 1
    21    3   19 1
    22    3   20 1
    23    4   21 1
    24    5   22 1
    25    6   23 1
    26    7   24 1
