@<TRIPOS>MOLECULE
benzamide
   16    16     0     0     0
SMALL
USER_CHARGES

@<TRIPOS>ATOM
      1 C1          1.8851   -1.0363   -0.1124 C.ar      1 MOL        -0.1036
      2 C2          0.8066   -0.4630    0.5610 C.ar      1 MOL        -0.1429
      3 C3          2.9210   -1.6309    0.6081 C.ar      1 MOL        -0.1429
      4 C4          0.7638   -0.4841    1.9551 C.ar      1 MOL        -0.0868
      5 C5          2.8783   -1.6520    2.0022 C.ar      1 MOL        -0.0868
      6 C6          1.7997   -1.0786    2.6757 C.ar      1 MOL        -0.1388
      7 C7          1.7551   -1.1006    4.1291 C.2       1 MOL         0.6714
      8 N1          0.6570   -0.5148    4.7523 N.am      1 MOL        -0.6742
      9 O1          2.6719   -1.6088    4.7983 O.2       1 MOL        -0.6181
     10 H1          1.9184   -1.0198   -1.1978 H         1 MOL         0.1381
     11 H2          0.0002    0.0000   -0.0002 H         1 MOL         0.1352
     12 H3          3.7607   -2.0775    0.0838 H         1 MOL         0.1352
     13 H4         -0.0814   -0.0344    2.4697 H         1 MOL         0.1451
     14 H5          3.6911   -2.1179    2.5534 H         1 MOL         0.1451
     15 H6         -0.0705   -0.0952    4.1836 H         1 MOL         0.3119
     16 H7          0.5682   -0.4981    5.7631 H         1 MOL         0.3119
@<TRIPOS>BOND
     1    1    2 ar
     2    1    3 ar
     3    2    4 ar
     4    3    5 ar
     5    4    6 ar
     6    5    6 ar
     7    6    7 1
     8    7    8 am
     9    7    9 2
    10    1   10 1
    11    2   11 1
    12    3   12 1
    13    4   13 1
    14    5   14 1
    15    8   15 1
    16    8   16 1
