@<TRIPOS>MOLECULE
4-methoxy-N,N-dimethyl-benzamide
   26    26     0     0     0
SMALL
USER_CHARGES

@<TRIPOS>ATOM
      1 C1          1.8054   -1.0908   -0.1541 C.ar      1 MOL        -0.0667
      2 C2          2.7528   -1.6967    1.9842 C.ar      1 MOL        -0.0667
      3 C3          0.6942   -0.5489    0.4917 C.ar      1 MOL        -0.1857
      4 C4          1.6417   -1.1547    2.6301 C.ar      1 MOL        -0.1857
      5 C5          2.8347   -1.6648    0.5921 C.ar      1 MOL        -0.1635
      6 C6          0.6123   -0.5808    1.8838 C.ar      1 MOL         0.1375
      7 C7          3.9934   -2.2297   -0.0811 C.2       1 MOL         0.6757
      8 C8          6.3044   -1.8987   -0.9927 C.3       1 MOL         0.0837
      9 C9          5.1220    0.0101    0.0356 C.3       1 MOL         0.0837
     10 C10        -1.4877    0.5186    1.6908 C.3       1 MOL         0.1123
     11 N1          5.1022   -1.4026   -0.3378 N.am      1 MOL        -0.4832
     12 O1          3.9386   -3.4296   -0.3818 O.2       1 MOL        -0.5930
     13 O2         -0.4719   -0.0522    2.5143 O.3       1 MOL        -0.3240
     14 H1          1.8583   -1.0599   -1.2394 H         1 MOL         0.1431
     15 H2          3.5497   -2.1414    2.5747 H         1 MOL         0.1431
     16 H3         -0.1044   -0.1033   -0.0951 H         1 MOL         0.1481
     17 H4          1.5833   -1.1827    3.7147 H         1 MOL         0.1481
     18 H5          6.2186   -1.7795   -2.0759 H         1 MOL         0.0421
     19 H6          6.4485   -2.9585   -0.7656 H         1 MOL         0.0421
     20 H7          7.1802   -1.3437   -0.6459 H         1 MOL         0.0421
     21 H8          5.5232    0.1261    1.0458 H         1 MOL         0.0421
     22 H9          4.1096    0.4222    0.0094 H         1 MOL         0.0421
     23 H10         5.7487    0.5758   -0.6591 H         1 MOL         0.0421
     24 H11        -2.2942    0.9033    2.3198 H         1 MOL         0.0468
     25 H12        -1.8747   -0.2421    1.0082 H         1 MOL         0.0468
     26 H13        -1.0569    1.3392    1.1123 H         1 MOL         0.0468
@<TRIPOS>BOND
     1    1    3 ar
     2    1    5 ar
     3    2    4 ar
     4    2    5 ar
     5    3    6 ar
     6    4    6 ar
     7    5    7 1
     8    6   13 1
     9    7   11 am
    10    7   12 2
    11    8   11 1
    12    9   11 1
    13   10   13 1
    14    1   14 1
    15    2   15 1
    16    3   16 1
    17    4   17 1
    18    8   18 1
    19    8   19 1
    20    8   20 1
    21    9   21 1
    22    9   22 1
    23    9   23 1
    24   10   24 1
    25   10   25 1
    26   10   26 1
