@<TRIPOS>MOLECULE
4-ethylpyridine
   17    17     0     0     0
SMALL
USER_CHARGES

@<TRIPOS>ATOM
      1 C1          0.2265   -0.4197    0.9733 C.ar      1 MOL        -0.2460
      2 C2          1.6520   -0.6227    2.8997 C.ar      1 MOL        -0.2460
      3 C3         -0.6317   -1.3224    1.5803 C.ar      1 MOL         0.3947
      4 C4          0.7299   -1.5161    3.4206 C.ar      1 MOL         0.3947
      5 C5          1.3879   -0.0684    1.6522 C.ar      1 MOL        -0.0393
      6 C6          3.4048    0.2066    0.1883 C.3       1 MOL        -0.0893
      7 C7          2.3469    0.8982    1.0445 C.3       1 MOL        -0.0447
      8 N1         -0.4092   -1.8816    2.7908 N.ar      1 MOL        -0.6686
      9 H1         -0.0080   -0.0059   -0.0017 H         1 MOL         0.1426
     10 H2          2.5490   -0.3683    3.4537 H         1 MOL         0.1426
     11 H3         -1.5505   -1.6300    1.0917 H         1 MOL         0.0209
     12 H4          0.8895   -1.9761    4.3902 H         1 MOL         0.0209
     13 H5          3.9597   -0.5351    0.7728 H         1 MOL         0.0387
     14 H6          4.1220    0.9342   -0.2045 H         1 MOL         0.0387
     15 H7          2.9459   -0.3101   -0.6614 H         1 MOL         0.0387
     16 H8          1.8097    1.6355    0.4263 H         1 MOL         0.0508
     17 H9          2.8483    1.4872    1.8295 H         1 MOL         0.0508
@<TRIPOS>BOND
     1    1    3 ar
     2    1    5 ar
     3    2    4 ar
     4    2    5 ar
     5    3    8 ar
     6    4    8 ar
     7    5    7 1
     8    6    7 1
     9    1    9 1
    10    2   10 1
    11    3   11 1
    12    4   12 1
    13    6   13 1
    14    6   14 1
    15    6   15 1
    16    7   16 1
    17    7   17 1
