@<TRIPOS>MOLECULE
2,3,4-trimethylpentane
   26    25     0     0     0
SMALL
USER_CHARGES

@<TRIPOS>ATOM
      1 C1          0.0432    0.6217   -2.0925 C.3       1 MOL        -0.0906
      2 C2          2.0954    1.3330   -0.8468 C.3       1 MOL        -0.0906
      3 C3         -0.2622   -2.2956    0.2409 C.3       1 MOL        -0.0906
      4 C4         -1.6067   -0.9796    1.8672 C.3       1 MOL        -0.0906
      5 C5         -0.4691    1.5805    0.8462 C.3       1 MOL        -0.0918
      6 C6          0.9437    0.3198   -0.8916 C.3       1 MOL        -0.0636
      7 C7         -0.8811   -0.9188    0.5146 C.3       1 MOL        -0.0636
      8 C8          0.1743    0.2355    0.4654 C.3       1 MOL        -0.0514
      9 H1         -0.4695    1.5824   -1.9834 H         1 MOL         0.0330
     10 H2          0.6362    0.6682   -3.0129 H         1 MOL         0.0330
     11 H3         -0.7121   -0.1561   -2.2347 H         1 MOL         0.0330
     12 H4          1.7196    2.3460   -0.6692 H         1 MOL         0.0330
     13 H5          2.6790    1.3365   -1.7723 H         1 MOL         0.0330
     14 H6          2.7844    1.0882   -0.0306 H         1 MOL         0.0330
     15 H7          0.5122   -2.5309    0.9795 H         1 MOL         0.0330
     16 H8         -1.0080   -3.0928    0.3077 H         1 MOL         0.0330
     17 H9          0.1976   -2.3321   -0.7524 H         1 MOL         0.0330
     18 H10        -0.9088   -1.1583    2.6903 H         1 MOL         0.0330
     19 H11        -2.3628   -1.7717    1.8758 H         1 MOL         0.0330
     20 H12        -2.1099   -0.0308    2.0842 H         1 MOL         0.0330
     21 H13        -1.2369    1.8845    0.1299 H         1 MOL         0.0340
     22 H14         0.2716    2.3861    0.8501 H         1 MOL         0.0340
     23 H15        -0.9256    1.5391    1.8402 H         1 MOL         0.0340
     24 H16         1.4199   -0.6511   -1.0720 H         1 MOL         0.0461
     25 H17        -1.6451   -0.7382   -0.2516 H         1 MOL         0.0461
     26 H18         0.9261    0.0165    1.2375 H         1 MOL         0.0430
@<TRIPOS>BOND
     1    1    6 1
     2    2    6 1
     3    3    7 1
     4    4    7 1
     5    5    8 1
     6    6    8 1
     7    7    8 1
     8    1    9 1
     9    1   10 1
    10    1   11 1
    11    2   12 1
    12    2   13 1
    13    2   14 1
    14    3   15 1
    15    3   16 1
    16    3   17 1
    17    4   18 1
    18    4   19 1
    19    4   20 1
    20    5   21 1
    21    5   22 1
    22    5   23 1
    23    6   24 1
    24    7   25 1
    25    8   26 1
