@<TRIPOS>MOLECULE
(2S)-2-(3-fluoro-4-phenyl-phenyl)propanoic acid
   31    32     0     0     0
SMALL
USER_CHARGES

@<TRIPOS>ATOM
      1 C1          1.8855   -1.0372   -0.1124 C.ar      1 MOL        -0.1235
      2 C2          0.8304   -1.6712    0.5434 C.ar      1 MOL        -0.1311
      3 C3          2.8978   -0.4239    0.6257 C.ar      1 MOL        -0.1311
      4 C4          0.7874   -1.6919    1.9375 C.ar      1 MOL        -0.1078
      5 C5          2.8549   -0.4446    2.0198 C.ar      1 MOL        -0.1078
      6 C6          0.6739   -0.5259    4.7901 C.ar      1 MOL        -0.0939
      7 C7          0.6257   -0.5450    6.1840 C.ar      1 MOL        -0.1170
      8 C8          2.7397   -1.7134    6.2410 C.ar      1 MOL        -0.1573
      9 C9          1.7997   -1.0786    2.6757 C.ar      1 MOL        -0.0494
     10 C10         1.7549   -1.1005    4.1216 C.ar      1 MOL        -0.0619
     11 C11         1.6586   -1.1388    6.9094 C.ar      1 MOL        -0.0611
     12 C12         2.7878   -1.6943    4.8471 C.ar      1 MOL         0.1355
     13 C13         1.5409   -2.5830    8.9662 C.2       1 MOL         0.6344
     14 C14         2.7724   -0.4060    9.0717 C.3       1 MOL        -0.0896
     15 C15         1.6069   -1.1602    8.3995 C.3       1 MOL        -0.0584
     16 O1          1.5533   -3.5995    8.2842 O.2       1 MOL        -0.5365
     17 O2          1.4561   -2.6138   10.3226 O.3       1 MOL        -0.6126
     18 F1          3.8337   -2.2512    4.2191 F         1 MOL        -0.1343
     19 H1          1.9196   -1.0226   -1.1979 H         1 MOL         0.1308
     20 H2          0.0430   -2.1502   -0.0311 H         1 MOL         0.1339
     21 H3          3.7205    0.0688    0.1157 H         1 MOL         0.1339
     22 H4         -0.0417   -2.1905    2.4341 H         1 MOL         0.1378
     23 H5          3.6514    0.0371    2.5818 H         1 MOL         0.1378
     24 H6         -0.1385   -0.0582    4.2390 H         1 MOL         0.1463
     25 H7         -0.2203   -0.0950    6.6964 H         1 MOL         0.1432
     26 H8          3.5485   -2.1788    6.7976 H         1 MOL         0.1484
     27 H9          3.7424   -0.8362    8.7990 H         1 MOL         0.0525
     28 H10         2.7700    0.6485    8.7748 H         1 MOL         0.0525
     29 H11         2.7063   -0.4444   10.1647 H         1 MOL         0.0525
     30 H12         0.6767   -0.6585    8.7312 H         1 MOL         0.0888
     31 H13         1.4052   -3.5089   10.7202 H         1 MOL         0.4451
@<TRIPOS>BOND
     1    1    2 ar
     2    1    3 ar
     3    2    4 ar
     4    3    5 ar
     5    4    9 ar
     6    5    9 ar
     7    6    7 ar
     8    6   10 ar
     9    7   11 ar
    10    8   11 ar
    11    8   12 ar
    12    9   10 1
    13   10   12 ar
    14   11   15 1
    15   12   18 1
    16   13   15 1
    17   13   16 2
    18   13   17 1
    19   14   15 1
    20    1   19 1
    21    2   20 1
    22    3   21 1
    23    4   22 1
    24    5   23 1
    25    6   24 1
    26    7   25 1
    27    8   26 1
    28   14   27 1
    29   14   28 1
    30   14   29 1
    31   15   30 1
    32   17   31 1
