@<TRIPOS>MOLECULE
cyclohexanone
   17    17     0     0     0
SMALL
USER_CHARGES

@<TRIPOS>ATOM
      1 C1         -0.6339   -0.1479    0.8463 C.2       1 MOL         0.5679
      2 C2         -0.1457    1.2507    0.5414 C.3       1 MOL        -0.1805
      3 C3         -0.7630   -1.0895   -0.3301 C.3       1 MOL        -0.1805
      4 C4          1.1135    1.2057   -0.3132 C.3       1 MOL        -0.0732
      5 C5          0.5101   -1.0835   -1.1650 C.3       1 MOL        -0.0732
      6 C6          0.9260    0.3338   -1.5529 C.3       1 MOL        -0.0828
      7 O1         -1.0070   -0.4694    1.9735 O.2       1 MOL        -0.5337
      8 H1         -0.9500    1.7853    0.0243 H         1 MOL         0.0691
      9 H2          0.0616    1.7718    1.4817 H         1 MOL         0.0691
     10 H3         -0.9604   -2.1011    0.0393 H         1 MOL         0.0691
     11 H4         -1.6236   -0.7697   -0.9277 H         1 MOL         0.0691
     12 H5          1.3906    2.2222   -0.6141 H         1 MOL         0.0476
     13 H6          1.9454    0.8088    0.2822 H         1 MOL         0.0476
     14 H7          1.3226   -1.5529   -0.5961 H         1 MOL         0.0476
     15 H8          0.3609   -1.6856   -2.0681 H         1 MOL         0.0476
     16 H9          0.1661    0.7776   -2.2073 H         1 MOL         0.0447
     17 H10         1.8619    0.2989   -2.1219 H         1 MOL         0.0447
@<TRIPOS>BOND
     1    1    2 1
     2    1    3 1
     3    1    7 2
     4    2    4 1
     5    3    5 1
     6    4    6 1
     7    5    6 1
     8    2    8 1
     9    2    9 1
    10    3   10 1
    11    3   11 1
    12    4   12 1
    13    4   13 1
    14    5   14 1
    15    5   15 1
    16    6   16 1
    17    6   17 1
