@<TRIPOS>MOLECULE
morpholine
   15    15     0     0     0
SMALL
USER_CHARGES

@<TRIPOS>ATOM
      1 C1         -1.2071    0.3696    0.6399 C.3       1 MOL         0.1245
      2 C2          0.2626   -1.3894   -0.0634 C.3       1 MOL         0.1245
      3 C3         -0.2374    1.3863    0.0488 C.3       1 MOL         0.1272
      4 C4          1.2055   -0.3403   -0.6416 C.3       1 MOL         0.1272
      5 N1         -1.1220   -0.9071   -0.0762 N.3       1 MOL        -0.8144
      6 O1          1.0983    0.8808    0.0925 O.3       1 MOL        -0.4179
      7 H1         -0.9783    0.2057    1.7000 H         1 MOL         0.0377
      8 H2         -2.2304    0.7532    0.5766 H         1 MOL         0.0377
      9 H3          0.3306   -2.3116   -0.6495 H         1 MOL         0.0377
     10 H4          0.5532   -1.6269    0.9672 H         1 MOL         0.0377
     11 H5         -0.4980    1.6393   -0.9861 H         1 MOL         0.0535
     12 H6         -0.2629    2.3114    0.6333 H         1 MOL         0.0535
     13 H7          2.2415   -0.6854   -0.5648 H         1 MOL         0.0535
     14 H8          0.9963   -0.1487   -1.7010 H         1 MOL         0.0535
     15 H9         -1.7253   -1.5926    0.3771 H         1 MOL         0.3643
@<TRIPOS>BOND
     1    1    3 1
     2    1    5 1
     3    2    4 1
     4    2    5 1
     5    3    6 1
     6    4    6 1
     7    1    7 1
     8    1    8 1
     9    2    9 1
    10    2   10 1
    11    3   11 1
    12    3   12 1
    13    4   13 1
    14    4   14 1
    15    5   15 1
