@<TRIPOS>MOLECULE
1-bromo-4-methyl-benzene
   15    15     0     0     0
SMALL
USER_CHARGES

@<TRIPOS>ATOM
      1 C1          1.8851   -1.0363   -0.1124 C.ar      1 MOL        -0.1324
      2 C2          2.8783   -1.6520    2.0022 C.ar      1 MOL        -0.1324
      3 C3          0.8066   -0.4630    0.5610 C.ar      1 MOL        -0.0995
      4 C4          1.7997   -1.0786    2.6757 C.ar      1 MOL        -0.0995
      5 C5          2.9210   -1.6309    0.6081 C.ar      1 MOL        -0.0619
      6 C6          0.7638   -0.4841    1.9551 C.ar      1 MOL        -0.0322
      7 C7          4.0742   -2.2439   -0.1120 C.3       1 MOL        -0.0579
      8 Br1        -0.6981    0.2924    2.8667 Br        1 MOL        -0.0914
      9 H1          1.9101   -1.0151   -1.1988 H         1 MOL         0.1370
     10 H2          3.6804   -2.1138    2.5719 H         1 MOL         0.1370
     11 H3          0.0071   -0.0046   -0.0156 H         1 MOL         0.1452
     12 H4          1.7817   -1.1033    3.7620 H         1 MOL         0.1452
     13 H5          4.8660   -1.5009   -0.2675 H         1 MOL         0.0476
     14 H6          4.4939   -3.0867    0.4524 H         1 MOL         0.0476
     15 H7          3.7692   -2.6375   -1.0904 H         1 MOL         0.0476
@<TRIPOS>BOND
     1    1    3 ar
     2    1    5 ar
     3    2    4 ar
     4    2    5 ar
     5    3    6 ar
     6    4    6 ar
     7    5    7 1
     8    6    8 1
     9    1    9 1
    10    2   10 1
    11    3   11 1
    12    4   12 1
    13    7   13 1
    14    7   14 1
    15    7   15 1
