@<TRIPOS>MOLECULE
methyl cyclohexanecarboxylate
   24    24     0     0     0
SMALL
USER_CHARGES

@<TRIPOS>ATOM
      1 C1          0.7296   -0.4754   -0.6707 C.2       1 MOL         0.6324
      2 C2          2.9486   -3.1872   -2.0644 C.3       1 MOL        -0.0780
      3 C3          2.3702   -2.0527   -2.9021 C.3       1 MOL        -0.0811
      4 C4          2.5978   -3.0262   -0.5898 C.3       1 MOL        -0.0811
      5 C5          0.8603   -1.9147   -2.7094 C.3       1 MOL        -0.0702
      6 C6          1.0887   -2.9170   -0.3777 C.3       1 MOL        -0.0702
      7 C7          0.4389   -1.8334   -1.2408 C.3       1 MOL        -0.1027
      8 C8          0.5122    0.8257    1.2899 C.3       1 MOL         0.1253
      9 O1          1.2743    0.4266   -1.2927 O.2       1 MOL        -0.5394
     10 O2          0.2960   -0.4208    0.6208 O.3       1 MOL        -0.4456
     11 H1          2.5626   -4.1465   -2.4306 H         1 MOL         0.0406
     12 H2          4.0376   -3.2147   -2.1833 H         1 MOL         0.0406
     13 H3          2.8627   -1.1113   -2.6301 H         1 MOL         0.0478
     14 H4          2.5895   -2.2283   -3.9615 H         1 MOL         0.0478
     15 H5          2.9829   -3.8843   -0.0269 H         1 MOL         0.0478
     16 H6          3.0980   -2.1374   -0.1875 H         1 MOL         0.0478
     17 H7          0.5073   -1.0336   -3.2590 H         1 MOL         0.0530
     18 H8          0.3717   -2.7858   -3.1648 H         1 MOL         0.0530
     19 H9          0.6300   -3.8836   -0.6225 H         1 MOL         0.0530
     20 H10         0.8872   -2.7313    0.6843 H         1 MOL         0.0530
     21 H11        -0.6504   -1.9512   -1.1799 H         1 MOL         0.0774
     22 H12         0.1306    0.7625    2.3119 H         1 MOL         0.0498
     23 H13         0.0009    1.6249    0.7474 H         1 MOL         0.0498
     24 H14         1.5844    1.0338    1.3160 H         1 MOL         0.0498
@<TRIPOS>BOND
     1    1    7 1
     2    1    9 2
     3    1   10 1
     4    2    3 1
     5    2    4 1
     6    3    5 1
     7    4    6 1
     8    5    7 1
     9    6    7 1
    10    8   10 1
    11    2   11 1
    12    2   12 1
    13    3   13 1
    14    3   14 1
    15    4   15 1
    16    4   16 1
    17    5   17 1
    18    5   18 1
    19    6   19 1
    20    6   20 1
    21    7   21 1
    22    8   22 1
    23    8   23 1
    24    8   24 1
