@<TRIPOS>MOLECULE
2-[(1S)-2-chloro-1-diethoxyphosphinothioylsulfanyl-ethyl]isoindoline-1,3-dione
   40    41     0     0     0
SMALL
USER_CHARGES

@<TRIPOS>ATOM
      1 C1         -1.4981    4.4208   -1.8563 C.ar      1 MOL        -0.1153
      2 C2         -0.4094    4.4050   -2.7519 C.ar      1 MOL        -0.1153
      3 C3         -1.5828    3.4958   -0.8117 C.ar      1 MOL        -0.0590
      4 C4          0.6161    3.4642   -2.6204 C.ar      1 MOL        -0.0590
      5 C5         -0.5596    2.5769   -0.7011 C.ar      1 MOL        -0.1351
      6 C6          0.5118    2.5616   -1.5821 C.ar      1 MOL        -0.1351
      7 C7         -0.3649    1.4993    0.2678 C.2       1 MOL         0.7331
      8 C8          1.4070    1.4737   -1.1889 C.2       1 MOL         0.7331
      9 C9         -3.4885   -0.1704   -1.7711 C.3       1 MOL        -0.1182
     10 C10        -1.2644   -3.1984    3.2045 C.3       1 MOL        -0.1182
     11 C11        -2.8616   -1.4134   -1.1766 C.3       1 MOL         0.1382
     12 C12        -0.5459   -3.3912    1.8861 C.3       1 MOL         0.1382
     13 C13         2.7696    0.1342    1.1844 C.3       1 MOL         0.0081
     14 C14         1.3941   -0.2318    0.6308 C.3       1 MOL         0.3875
     15 N1          0.8263    0.8859   -0.0792 N.am      1 MOL        -0.5031
     16 O1         -1.1367    1.2473    1.1744 O.2       1 MOL        -0.5415
     17 O2          2.4403    1.1992   -1.7704 O.2       1 MOL        -0.5415
     18 O3         -1.4512   -1.2658   -1.1790 O.3       1 MOL        -0.4875
     19 O4         -1.0754   -2.4831    0.9343 O.3       1 MOL        -0.4875
     20 P1         -0.4940   -2.4555   -0.5937 P.3       1 MOL         0.9229
     21 S1         -0.7714   -4.1598   -1.5260 S.2       1 MOL        -0.5339
     22 S2          1.4800   -1.6648   -0.4916 S.3       1 MOL        -0.5356
     23 Cl1         2.6883    1.4828    2.3468 Cl        1 MOL        -0.1741
     24 H1         -2.2815    5.1638   -1.9820 H         1 MOL         0.1456
     25 H2         -0.3692    5.1357   -3.5555 H         1 MOL         0.1456
     26 H3         -2.4201    3.5079   -0.1238 H         1 MOL         0.1627
     27 H4          1.4526    3.4524   -3.3090 H         1 MOL         0.1627
     28 H5         -3.2294    0.7158   -1.1851 H         1 MOL         0.0600
     29 H6         -3.1511   -0.0233   -2.8023 H         1 MOL         0.0600
     30 H7         -4.5789   -0.2660   -1.8035 H         1 MOL         0.0600
     31 H8         -1.1260   -2.1803    3.5790 H         1 MOL         0.0600
     32 H9         -2.3364   -3.3909    3.0917 H         1 MOL         0.0600
     33 H10        -0.8914   -3.9042    3.9540 H         1 MOL         0.0600
     34 H11        -3.1246   -2.2960   -1.7673 H         1 MOL         0.0720
     35 H12        -3.1990   -1.5584   -0.1460 H         1 MOL         0.0720
     36 H13        -0.6883   -4.4113    1.5170 H         1 MOL         0.0720
     37 H14         0.5248   -3.1977    2.0003 H         1 MOL         0.0720
     38 H15         3.2007   -0.7160    1.7241 H         1 MOL         0.1018
     39 H16         3.4755    0.4061    0.3916 H         1 MOL         0.1018
     40 H17         0.7086   -0.4647    1.4519 H         1 MOL         0.1302
@<TRIPOS>BOND
     1    1    2 ar
     2    1    3 ar
     3    2    4 ar
     4    3    5 ar
     5    4    6 ar
     6    5    6 ar
     7    5    7 1
     8    6    8 1
     9    7   15 am
    10    7   16 2
    11    8   15 am
    12    8   17 2
    13    9   11 1
    14   10   12 1
    15   11   18 1
    16   12   19 1
    17   13   14 1
    18   13   23 1
    19   14   15 1
    20   14   22 1
    21   18   20 1
    22   19   20 1
    23   20   21 2
    24   20   22 1
    25    1   24 1
    26    2   25 1
    27    3   26 1
    28    4   27 1
    29    9   28 1
    30    9   29 1
    31    9   30 1
    32   10   31 1
    33   10   32 1
    34   10   33 1
    35   11   34 1
    36   11   35 1
    37   12   36 1
    38   12   37 1
    39   13   38 1
    40   13   39 1
    41   14   40 1
