@<TRIPOS>MOLECULE
2,4-dimethylphenol
   19    19     0     0     0
SMALL
USER_CHARGES

@<TRIPOS>ATOM
      1 C1          1.8851   -1.0363   -0.1124 C.ar      1 MOL        -0.0976
      2 C2          0.8066   -0.4630    0.5610 C.ar      1 MOL        -0.2070
      3 C3          2.8783   -1.6520    2.0022 C.ar      1 MOL        -0.1021
      4 C4          2.9210   -1.6309    0.6081 C.ar      1 MOL        -0.1070
      5 C5          1.7997   -1.0786    2.6757 C.ar      1 MOL        -0.0945
      6 C6          0.7638   -0.4841    1.9551 C.ar      1 MOL         0.1173
      7 C7          4.0732   -2.2449   -0.1125 C.3       1 MOL        -0.0482
      8 C8          1.7695   -1.1114    4.1682 C.3       1 MOL        -0.0451
      9 O1         -0.2965    0.0820    2.5967 O.3       1 MOL        -0.4983
     10 H1          1.9101   -1.0160   -1.1988 H         1 MOL         0.1325
     11 H2          0.0023   -0.0033   -0.0071 H         1 MOL         0.1304
     12 H3          3.6862   -2.1161    2.5631 H         1 MOL         0.1334
     13 H4          4.8653   -1.5025   -0.2692 H         1 MOL         0.0423
     14 H5          4.4930   -3.0877    0.4520 H         1 MOL         0.0423
     15 H6          3.7673   -2.6390   -1.0905 H         1 MOL         0.0423
     16 H7          2.2587   -0.2200    4.5780 H         1 MOL         0.0473
     17 H8          0.7392   -1.1481    4.5434 H         1 MOL         0.0473
     18 H9          2.2821   -2.0006    4.5559 H         1 MOL         0.0473
     19 H10        -0.9214    0.4485    1.9517 H         1 MOL         0.4174
@<TRIPOS>BOND
     1    1    2 ar
     2    1    4 ar
     3    2    6 ar
     4    3    4 ar
     5    3    5 ar
     6    4    7 1
     7    5    6 ar
     8    5    8 1
     9    6    9 1
    10    1   10 1
    11    2   11 1
    12    3   12 1
    13    7   13 1
    14    7   14 1
    15    7   15 1
    16    8   16 1
    17    8   17 1
    18    8   18 1
    19    9   19 1
