@<TRIPOS>MOLECULE
hexan-1-amine
   22    21     0     0     0
SMALL
USER_CHARGES

@<TRIPOS>ATOM
      1 C1         -2.2688   -1.4461    1.9686 C.3       1 MOL        -0.0928
      2 C2         -1.0925   -0.5057    1.7565 C.3       1 MOL        -0.0796
      3 C3         -1.2660    0.8539    2.4368 C.3       1 MOL        -0.0797
      4 C4         -0.0497    1.7702    2.2805 C.3       1 MOL        -0.0780
      5 C5         -0.2653    3.1033    3.0050 C.3       1 MOL        -0.0811
      6 C6          0.9524    4.0184    2.9198 C.3       1 MOL         0.1592
      7 N1          0.7605    5.2596    3.6186 N.3       1 MOL        -0.9155
      8 H1         -2.4592   -1.6033    3.0349 H         1 MOL         0.0327
      9 H2         -3.1815   -1.0584    1.5068 H         1 MOL         0.0327
     10 H3         -2.0570   -2.4199    1.5151 H         1 MOL         0.0327
     11 H4         -0.9252   -0.3670    0.6820 H         1 MOL         0.0384
     12 H5         -0.1900   -0.9817    2.1584 H         1 MOL         0.0384
     13 H6         -2.1585    1.3526    2.0397 H         1 MOL         0.0402
     14 H7         -1.4496    0.6807    3.5045 H         1 MOL         0.0402
     15 H8          0.1388    1.9591    1.2182 H         1 MOL         0.0388
     16 H9          0.8393    1.2726    2.6863 H         1 MOL         0.0388
     17 H10        -1.1422    3.6116    2.5854 H         1 MOL         0.0468
     18 H11        -0.4805    2.9075    4.0625 H         1 MOL         0.0468
     19 H12         1.1954    4.2545    1.8790 H         1 MOL         0.0228
     20 H13         1.8212    3.5297    3.3717 H         1 MOL         0.0228
     21 H14        -0.1354    5.7189    3.5690 H         1 MOL         0.3477
     22 H15         1.5642    5.7537    3.9737 H         1 MOL         0.3477
@<TRIPOS>BOND
     1    1    2 1
     2    2    3 1
     3    3    4 1
     4    4    5 1
     5    5    6 1
     6    6    7 1
     7    1    8 1
     8    1    9 1
     9    1   10 1
    10    2   11 1
    11    2   12 1
    12    3   13 1
    13    3   14 1
    14    4   15 1
    15    4   16 1
    16    5   17 1
    17    5   18 1
    18    6   19 1
    19    6   20 1
    20    7   21 1
    21    7   22 1
