@<TRIPOS>MOLECULE
2-butoxyethanol
   22    21     0     0     0
SMALL
USER_CHARGES

@<TRIPOS>ATOM
      1 C1          0.4086   -1.0630   -0.1228 C.3       1 MOL        -0.0919
      2 C2         -0.5745   -2.0349    0.5099 C.3       1 MOL        -0.0793
      3 C3         -1.9307   -1.9925   -0.1885 C.3       1 MOL        -0.0844
      4 C4         -2.9047   -2.9950    0.4140 C.3       1 MOL         0.1310
      5 C5         -6.3901   -3.6833   -0.5413 C.3       1 MOL         0.1253
      6 C6         -5.0930   -3.8319    0.2302 C.3       1 MOL         0.0911
      7 O1         -6.8781   -2.3572   -0.3777 O.3       1 MOL        -0.5943
      8 O2         -4.1377   -2.9159   -0.2877 O.3       1 MOL        -0.4200
      9 H1          0.0248   -0.0384   -0.0880 H         1 MOL         0.0353
     10 H2          1.3724   -1.0868    0.3957 H         1 MOL         0.0353
     11 H3          0.5802   -1.3260   -1.1712 H         1 MOL         0.0353
     12 H4         -0.1609   -3.0488    0.4588 H         1 MOL         0.0389
     13 H5         -0.6936   -1.7861    1.5708 H         1 MOL         0.0389
     14 H6         -2.3601   -0.9850   -0.1238 H         1 MOL         0.0550
     15 H7         -1.8129   -2.1993   -1.2596 H         1 MOL         0.0550
     16 H8         -2.5190   -4.0157    0.3261 H         1 MOL         0.0267
     17 H9         -3.0903   -2.7735    1.4699 H         1 MOL         0.0267
     18 H10        -7.1519   -4.3751   -0.1692 H         1 MOL         0.0594
     19 H11        -6.2231   -3.8577   -1.6082 H         1 MOL         0.0594
     20 H12        -4.6863   -4.8429    0.1275 H         1 MOL         0.0300
     21 H13        -5.2486   -3.6030    1.2885 H         1 MOL         0.0300
     22 H14        -6.1947   -1.7633   -0.7275 H         1 MOL         0.3965
@<TRIPOS>BOND
     1    1    2 1
     2    2    3 1
     3    3    4 1
     4    4    8 1
     5    5    6 1
     6    5    7 1
     7    6    8 1
     8    1    9 1
     9    1   10 1
    10    1   11 1
    11    2   12 1
    12    2   13 1
    13    3   14 1
    14    3   15 1
    15    4   16 1
    16    4   17 1
    17    5   18 1
    18    5   19 1
    19    6   20 1
    20    6   21 1
    21    7   22 1
