@<TRIPOS>MOLECULE
3-methoxyaniline
   18    18     0     0     0
SMALL
USER_CHARGES

@<TRIPOS>ATOM
      1 C1          1.8851   -1.0363   -0.1124 C.ar      1 MOL        -0.0607
      2 C2          0.8066   -0.4630    0.5610 C.ar      1 MOL        -0.2266
      3 C3          2.9210   -1.6309    0.6081 C.ar      1 MOL        -0.2462
      4 C4          1.7997   -1.0786    2.6757 C.ar      1 MOL        -0.2223
      5 C5          0.7638   -0.4841    1.9551 C.ar      1 MOL         0.1715
      6 C6          2.8783   -1.6520    2.0022 C.ar      1 MOL         0.1596
      7 C7          4.9608   -2.7994    1.9530 C.3       1 MOL         0.1150
      8 N1         -0.3262    0.0966    2.6360 N.pl3     1 MOL        -0.8217
      9 O1          3.8891   -2.2323    2.7051 O.3       1 MOL        -0.3296
     10 H1          1.9186   -1.0197   -1.1979 H         1 MOL         0.1277
     11 H2          0.0054   -0.0012   -0.0105 H         1 MOL         0.1318
     12 H3          3.7582   -2.0764    0.0779 H         1 MOL         0.1372
     13 H4          1.7710   -1.0974    3.7627 H         1 MOL         0.1485
     14 H5          5.6987   -3.2284    2.6353 H         1 MOL         0.0439
     15 H6          5.4250   -2.0248    1.3374 H         1 MOL         0.0439
     16 H7          4.5643   -3.5864    1.3071 H         1 MOL         0.0439
     17 H8         -1.0383    0.5616    2.1100 H         1 MOL         0.3921
     18 H9         -0.3220    0.1166    3.6358 H         1 MOL         0.3921
@<TRIPOS>BOND
     1    1    2 ar
     2    1    3 ar
     3    2    5 ar
     4    3    6 ar
     5    4    5 ar
     6    4    6 ar
     7    5    8 1
     8    6    9 1
     9    7    9 1
    10    1   10 1
    11    2   11 1
    12    3   12 1
    13    4   13 1
    14    7   14 1
    15    7   15 1
    16    7   16 1
    17    8   17 1
    18    8   18 1
