@<TRIPOS>MOLECULE
2-(2,3-dimethylanilino)benzoic acid
   33    34     0     0     0
SMALL
USER_CHARGES

@<TRIPOS>ATOM
      1 C1          3.1698   -0.6471    0.1607 C.ar      1 MOL        -0.1891
      2 C2          3.3189    0.3874    1.0844 C.ar      1 MOL        -0.0652
      3 C3          0.1183    1.9259    5.4821 C.ar      1 MOL        -0.1283
      4 C4          2.5424   -1.8343    0.5384 C.ar      1 MOL        -0.0401
      5 C5          0.2819    1.7143    6.8511 C.ar      1 MOL        -0.1240
      6 C6          2.8408    0.2347    2.3858 C.ar      1 MOL        -0.1939
      7 C7          0.6048    0.9906    4.5687 C.ar      1 MOL        -0.1353
      8 C8          2.0643   -1.9870    1.8398 C.ar      1 MOL        -0.2101
      9 C9          0.9322    0.5674    7.3066 C.ar      1 MOL        -0.0773
     10 C10         1.4188   -0.3678    6.3933 C.ar      1 MOL        -0.0580
     11 C11         2.2134   -0.9525    2.7636 C.ar      1 MOL         0.2438
     12 C12         1.2551   -0.1562    5.0243 C.ar      1 MOL         0.1158
     13 C13         1.4140   -3.2399    2.2035 C.2       1 MOL         0.6565
     14 C14         1.0941    0.3654    8.7778 C.3       1 MOL        -0.0540
     15 C15         2.1160   -1.5968    6.8863 C.3       1 MOL        -0.0553
     16 N1          1.7380   -1.0876    4.0870 N.pl3     1 MOL        -0.6651
     17 O1          0.5237   -3.3618    3.0484 O.2       1 MOL        -0.5613
     18 O2          1.8975   -4.2973    1.4980 O.3       1 MOL        -0.5998
     19 H1          3.5413   -0.5285   -0.8529 H         1 MOL         0.1380
     20 H2          3.8081    1.3114    0.7902 H         1 MOL         0.1352
     21 H3         -0.3885    2.8186    5.1274 H         1 MOL         0.1356
     22 H4          2.4340   -2.6331   -0.1908 H         1 MOL         0.1424
     23 H5         -0.1009    2.4491    7.5545 H         1 MOL         0.1337
     24 H6          2.9628    1.0480    3.0966 H         1 MOL         0.1464
     25 H7          0.4709    1.1664    3.5043 H         1 MOL         0.1472
     26 H8          0.2360   -0.1837    9.1822 H         1 MOL         0.0455
     27 H9          2.0076   -0.1988    9.0020 H         1 MOL         0.0455
     28 H10         1.1744    1.3252    9.3029 H         1 MOL         0.0455
     29 H11         1.3924   -2.4041    7.0412 H         1 MOL         0.0489
     30 H12         2.8722   -1.9347    6.1687 H         1 MOL         0.0489
     31 H13         2.6343   -1.4022    7.8322 H         1 MOL         0.0489
     32 H14         1.7490   -2.0444    4.4249 H         1 MOL         0.4377
     33 H15         1.4654   -5.1456    1.7349 H         1 MOL         0.4415
@<TRIPOS>BOND
     1    1    2 ar
     2    1    4 ar
     3    2    6 ar
     4    3    5 ar
     5    3    7 ar
     6    4    8 ar
     7    5    9 ar
     8    6   11 ar
     9    7   12 ar
    10    8   11 ar
    11    8   13 1
    12    9   10 ar
    13    9   14 1
    14   10   12 ar
    15   10   15 1
    16   11   16 1
    17   12   16 1
    18   13   17 2
    19   13   18 1
    20    1   19 1
    21    2   20 1
    22    3   21 1
    23    4   22 1
    24    5   23 1
    25    6   24 1
    26    7   25 1
    27   14   26 1
    28   14   27 1
    29   14   28 1
    30   15   29 1
    31   15   30 1
    32   15   31 1
    33   16   32 1
    34   18   33 1
