@<TRIPOS>MOLECULE
propane-1-thiol
   12    11     0     0     0
SMALL
USER_CHARGES

@<TRIPOS>ATOM
      1 C1          0.1575   -0.4974    0.9622 C.3       1 MOL        -0.0929
      2 C2          1.6397   -0.5220    1.3061 C.3       1 MOL        -0.0726
      3 C3          1.8811   -1.2098    2.6451 C.3       1 MOL         0.0092
      4 S1          3.6533   -1.2345    3.0372 S.3       1 MOL        -0.3819
      5 H1         -0.2533   -1.5114    0.9245 H         1 MOL         0.0362
      6 H2         -0.3977    0.0661    1.7186 H         1 MOL         0.0362
      7 H3         -0.0120   -0.0211   -0.0088 H         1 MOL         0.0362
      8 H4          2.0115    0.5095    1.3338 H         1 MOL         0.0564
      9 H5          2.1779   -1.0441    0.5058 H         1 MOL         0.0564
     10 H6          1.3554   -0.6852    3.4494 H         1 MOL         0.0581
     11 H7          1.5173   -2.2420    2.6204 H         1 MOL         0.0581
     12 H8          3.5305   -1.8714    4.2096 H         1 MOL         0.2007
@<TRIPOS>BOND
     1    1    2 1
     2    2    3 1
     3    3    4 1
     4    1    5 1
     5    1    6 1
     6    1    7 1
     7    2    8 1
     8    2    9 1
     9    3   10 1
    10    3   11 1
    11    4   12 1
