@<TRIPOS>MOLECULE
methyl benzoate
   18    18     0     0     0
SMALL
USER_CHARGES

@<TRIPOS>ATOM
      1 C1          1.8851   -1.0363   -0.1124 C.ar      1 MOL        -0.1110
      2 C2          0.8066   -0.4630    0.5610 C.ar      1 MOL        -0.1324
      3 C3          2.9210   -1.6309    0.6081 C.ar      1 MOL        -0.1324
      4 C4          0.7638   -0.4841    1.9551 C.ar      1 MOL        -0.0887
      5 C5          2.8783   -1.6520    2.0022 C.ar      1 MOL        -0.0887
      6 C6          1.7997   -1.0786    2.6757 C.ar      1 MOL        -0.1094
      7 C7          1.7551   -1.1006    4.1291 C.2       1 MOL         0.6435
      8 C8          2.9237   -1.8109    6.0841 C.3       1 MOL         0.1234
      9 O1          0.8400   -0.6175    4.8090 O.2       1 MOL        -0.5249
     10 O2          2.8526   -1.7244    4.6569 O.3       1 MOL        -0.4319
     11 H1          1.9184   -1.0198   -1.1978 H         1 MOL         0.1354
     12 H2          0.0002    0.0000   -0.0002 H         1 MOL         0.1388
     13 H3          3.7607   -2.0775    0.0838 H         1 MOL         0.1388
     14 H4         -0.0814   -0.0344    2.4697 H         1 MOL         0.1435
     15 H5          3.6911   -2.1179    2.5534 H         1 MOL         0.1435
     16 H6          3.8421   -2.3278    6.3732 H         1 MOL         0.0508
     17 H7          2.0533   -2.3538    6.4610 H         1 MOL         0.0508
     18 H8          2.9298   -0.8013    6.5016 H         1 MOL         0.0508
@<TRIPOS>BOND
     1    1    2 ar
     2    1    3 ar
     3    2    4 ar
     4    3    5 ar
     5    4    6 ar
     6    5    6 ar
     7    6    7 1
     8    7    9 2
     9    7   10 1
    10    8   10 1
    11    1   11 1
    12    2   12 1
    13    3   13 1
    14    4   14 1
    15    5   15 1
    16    8   16 1
    17    8   17 1
    18    8   18 1
