@<TRIPOS>MOLECULE
(Z)-pent-2-ene
   15    14     0     0     0
SMALL
USER_CHARGES

@<TRIPOS>ATOM
      1 C1          1.5643   -0.6624    1.2357 C.2       1 MOL        -0.1676
      2 C2          0.8257    0.2886    0.6459 C.2       1 MOL        -0.1705
      3 C3          1.3215   -2.1259    1.0696 C.3       1 MOL        -0.0685
      4 C4          0.1007   -0.1225   -1.7064 C.3       1 MOL        -0.0874
      5 C5         -0.3382    0.0013   -0.2557 C.3       1 MOL        -0.0525
      6 H1          2.3932   -0.3774    1.8782 H         1 MOL         0.1184
      7 H2          1.0602    1.3351    0.8250 H         1 MOL         0.1182
      8 H3          0.6278   -2.4781    1.8391 H         1 MOL         0.0407
      9 H4          2.2430   -2.7115    1.1472 H         1 MOL         0.0407
     10 H5          0.8755   -2.3204    0.0895 H         1 MOL         0.0407
     11 H6          0.8270   -0.9345   -1.8137 H         1 MOL         0.0342
     12 H7          0.5719    0.8019   -2.0572 H         1 MOL         0.0342
     13 H8         -0.7495   -0.3417   -2.3612 H         1 MOL         0.0342
     14 H9         -1.0643    0.8170   -0.1634 H         1 MOL         0.0426
     15 H10        -0.8525   -0.9189    0.0450 H         1 MOL         0.0426
@<TRIPOS>BOND
     1    1    2 2
     2    1    3 1
     3    2    5 1
     4    4    5 1
     5    1    6 1
     6    2    7 1
     7    3    8 1
     8    3    9 1
     9    3   10 1
    10    4   11 1
    11    4   12 1
    12    4   13 1
    13    5   14 1
    14    5   15 1
