@<TRIPOS>MOLECULE
(E)-oct-2-enal
   23    22     0     0     0
SMALL
USER_CHARGES

@<TRIPOS>ATOM
      1 C1          2.6371    2.9808    1.3422 C.2       1 MOL        -0.2763
      2 C2          2.3298    1.7099    1.0556 C.2       1 MOL        -0.0879
      3 C3          4.0450    3.3394    1.5983 C.2       1 MOL         0.5543
      4 C4         -2.2743   -0.7371   -2.6252 C.3       1 MOL        -0.0928
      5 C5          0.9274    1.2411    0.7899 C.3       1 MOL        -0.0646
      6 C6         -0.8475   -0.3008   -2.3326 C.3       1 MOL        -0.0792
      7 C7          0.7301    0.6837   -0.6238 C.3       1 MOL        -0.0764
      8 C8         -0.7155    0.2749   -0.9220 C.3       1 MOL        -0.0836
      9 O1          4.3829    4.4866    1.8645 O.2       1 MOL        -0.5284
     10 H1          1.8916    3.7653    1.3923 H         1 MOL         0.1536
     11 H2          3.1113    0.9548    1.0248 H         1 MOL         0.1248
     12 H3          4.7782    2.5180    1.5368 H         1 MOL        -0.0092
     13 H4         -2.6108   -1.4883   -1.9035 H         1 MOL         0.0340
     14 H5         -2.3392   -1.1748   -3.6263 H         1 MOL         0.0340
     15 H6         -2.9614    0.1140   -2.5815 H         1 MOL         0.0340
     16 H7          0.6657    0.4766    1.5314 H         1 MOL         0.0558
     17 H8          0.2203    2.0673    0.9368 H         1 MOL         0.0558
     18 H9         -0.5430    0.4494   -3.0717 H         1 MOL         0.0386
     19 H10        -0.1774   -1.1607   -2.4478 H         1 MOL         0.0386
     20 H11         1.3965   -0.1738   -0.7810 H         1 MOL         0.0441
     21 H12         1.0360    1.4562   -1.3406 H         1 MOL         0.0441
     22 H13        -1.3726    1.1471   -0.8189 H         1 MOL         0.0435
     23 H14        -1.0531   -0.4737   -0.1962 H         1 MOL         0.0435
@<TRIPOS>BOND
     1    1    2 2
     2    1    3 1
     3    2    5 1
     4    3    9 2
     5    4    6 1
     6    5    7 1
     7    6    8 1
     8    7    8 1
     9    1   10 1
    10    2   11 1
    11    3   12 1
    12    4   13 1
    13    4   14 1
    14    4   15 1
    15    5   16 1
    16    5   17 1
    17    6   18 1
    18    6   19 1
    19    7   20 1
    20    7   21 1
    21    8   22 1
    22    8   23 1
