@<TRIPOS>MOLECULE
3,5-dichloro-2,6-dimethoxy-phenol
   21    21     0     0     0
SMALL
USER_CHARGES

@<TRIPOS>ATOM
      1 C1          1.8851   -1.0363   -0.1124 C.ar      1 MOL        -0.1478
      2 C2          1.7997   -1.0786    2.6757 C.ar      1 MOL         0.1246
      3 C3          0.7638   -0.4841    1.9551 C.ar      1 MOL         0.0422
      4 C4          2.8783   -1.6520    2.0022 C.ar      1 MOL         0.0422
      5 C5          0.8066   -0.4630    0.5610 C.ar      1 MOL         0.0401
      6 C6          2.9210   -1.6309    0.6081 C.ar      1 MOL         0.0401
      7 C7         -0.1683    1.4482    2.9813 C.3       1 MOL         0.1102
      8 C8          4.9740   -1.3921    3.0959 C.3       1 MOL         0.1102
      9 O1          1.7584   -1.0988    4.0387 O.3       1 MOL        -0.4741
     10 O2         -0.2850    0.0726    2.6272 O.3       1 MOL        -0.3257
     11 O3          3.8843   -2.2303    2.7202 O.3       1 MOL        -0.3257
     12 Cl1        -0.4620    0.2622   -0.3566 Cl        1 MOL        -0.0613
     13 Cl2         4.2404   -2.3356   -0.2514 Cl        1 MOL        -0.0613
     14 H1          1.9165   -1.0225   -1.2000 H         1 MOL         0.1663
     15 H2         -1.0694    1.7665    3.5111 H         1 MOL         0.0472
     16 H3         -0.0330    2.0477    2.0776 H         1 MOL         0.0472
     17 H4          0.6990    1.5749    3.6335 H         1 MOL         0.0472
     18 H5          5.7047   -1.9749    3.6621 H         1 MOL         0.0472
     19 H6          4.6040   -0.5625    3.7037 H         1 MOL         0.0472
     20 H7          5.4466   -0.9975    2.1934 H         1 MOL         0.0472
     21 H8          2.5449   -1.5440    4.3898 H         1 MOL         0.4367
@<TRIPOS>BOND
     1    1    5 ar
     2    1    6 ar
     3    2    3 ar
     4    2    4 ar
     5    2    9 1
     6    3    5 ar
     7    3   10 1
     8    4    6 ar
     9    4   11 1
    10    5   12 1
    11    6   13 1
    12    7   10 1
    13    8   11 1
    14    1   14 1
    15    7   15 1
    16    7   16 1
    17    7   17 1
    18    8   18 1
    19    8   19 1
    20    8   20 1
    21    9   21 1
