@<TRIPOS>MOLECULE
pentanal
   16    15     0     0     0
SMALL
USER_CHARGES

@<TRIPOS>ATOM
      1 C1          1.7927   -1.8633    0.7620 C.2       1 MOL         0.5624
      2 C2         -1.1072    1.9827   -0.7362 C.3       1 MOL        -0.0921
      3 C3          0.3998   -1.3953    0.4152 C.3       1 MOL        -0.1973
      4 C4         -1.0622    0.5172   -0.3337 C.3       1 MOL        -0.0785
      5 C5          0.3521    0.0848    0.0501 C.3       1 MOL        -0.0756
      6 O1          2.7960   -1.1591    0.7265 O.2       1 MOL        -0.5243
      7 H1          1.8649   -2.9224    1.0638 H         1 MOL        -0.0091
      8 H2         -0.7472    2.6122    0.0836 H         1 MOL         0.0348
      9 H3         -2.1290    2.2918   -0.9784 H         1 MOL         0.0348
     10 H4         -0.4749    2.1692   -1.6103 H         1 MOL         0.0348
     11 H5          0.0460   -2.0073   -0.4216 H         1 MOL         0.0652
     12 H6         -0.2402   -1.5971    1.2807 H         1 MOL         0.0652
     13 H7         -1.4259   -0.0956   -1.1667 H         1 MOL         0.0364
     14 H8         -1.7431    0.3551    0.5101 H         1 MOL         0.0364
     15 H9          0.7060    0.6861    0.8970 H         1 MOL         0.0534
     16 H10         1.0381    0.2816   -0.7834 H         1 MOL         0.0534
@<TRIPOS>BOND
     1    1    3 1
     2    1    6 2
     3    2    4 1
     4    3    5 1
     5    4    5 1
     6    1    7 1
     7    2    8 1
     8    2    9 1
     9    2   10 1
    10    3   11 1
    11    3   12 1
    12    4   13 1
    13    4   14 1
    14    5   15 1
    15    5   16 1
