@<TRIPOS>MOLECULE
2,3-diacetoxypropyl acetate
   29    28     0     0     0
SMALL
USER_CHARGES

@<TRIPOS>ATOM
      1 C1          1.8603   -1.2281    1.2475 C.2       1 MOL         0.6371
      2 C2          1.0488    0.1761   -4.8956 C.2       1 MOL         0.6371
      3 C3          2.5971    3.0386   -0.9136 C.2       1 MOL         0.6372
      4 C4          2.9181   -2.2896    1.2326 C.3       1 MOL        -0.1501
      5 C5          1.2612    1.0252   -6.1122 C.3       1 MOL        -0.1501
      6 C6          4.0288    3.4709   -1.0100 C.3       1 MOL        -0.1489
      7 C7          0.9523    0.5385   -0.0326 C.3       1 MOL         0.1280
      8 C8          0.9856    0.2573   -2.5348 C.3       1 MOL         0.1280
      9 C9          1.1440    1.2331   -1.3744 C.3       1 MOL         0.1467
     10 O1          1.0800   -1.0514    2.1733 O.2       1 MOL        -0.5373
     11 O2          0.8072   -1.0228   -4.9305 O.2       1 MOL        -0.5373
     12 O3          1.7004    3.7349   -0.4572 O.2       1 MOL        -0.5387
     13 O4          1.9094   -0.5089    0.0865 O.3       1 MOL        -0.4444
     14 O5          1.1659    0.9422   -3.7700 O.3       1 MOL        -0.4444
     15 O6          2.4671    1.7733   -1.4064 O.3       1 MOL        -0.4371
     16 H1          2.5168   -3.2070    0.7949 H         1 MOL         0.0777
     17 H2          3.2753   -2.4718    2.2493 H         1 MOL         0.0777
     18 H3          3.7616   -1.9525    0.6230 H         1 MOL         0.0777
     19 H4          0.3068    1.4392   -6.4467 H         1 MOL         0.0777
     20 H5          1.7220    0.4297   -6.9043 H         1 MOL         0.0777
     21 H6          1.9324    1.8526   -5.8642 H         1 MOL         0.0777
     22 H7          4.5620    3.1942   -0.0971 H         1 MOL         0.0781
     23 H8          4.0802    4.5502   -1.1744 H         1 MOL         0.0781
     24 H9          4.5034    2.9673   -1.8572 H         1 MOL         0.0781
     25 H10        -0.0450    0.0930    0.0448 H         1 MOL         0.0686
     26 H11         1.1073    1.2349    0.7974 H         1 MOL         0.0686
     27 H12        -0.0085   -0.2005   -2.5434 H         1 MOL         0.0686
     28 H13         1.7391   -0.5353   -2.4895 H         1 MOL         0.0686
     29 H14         0.4552    2.0798   -1.4720 H         1 MOL         0.0993
@<TRIPOS>BOND
     1    1    4 1
     2    1   10 2
     3    1   13 1
     4    2    5 1
     5    2   11 2
     6    2   14 1
     7    3    6 1
     8    3   12 2
     9    3   15 1
    10    7    9 1
    11    7   13 1
    12    8    9 1
    13    8   14 1
    14    9   15 1
    15    4   16 1
    16    4   17 1
    17    4   18 1
    18    5   19 1
    19    5   20 1
    20    5   21 1
    21    6   22 1
    22    6   23 1
    23    6   24 1
    24    7   25 1
    25    7   26 1
    26    8   27 1
    27    8   28 1
    28    9   29 1
