@<TRIPOS>MOLECULE
SAMPL4_028
   20    19     0     0     0
SMALL
NO_CHARGES

@<TRIPOS>ATOM
      1 C1         -5.6401   -1.3688    2.4782 C.3       1 <0>         0.0000
      2 C2         -6.2230    0.5708    0.9729 C.3       1 <0>         0.0000
      3 C3         -6.2441    1.1126   -0.4521 C.3       1 <0>         0.0000
      4 C4         -5.7030   -0.8661    1.0424 C.3       1 <0>         0.0000
      5 N1         -6.7834    3.0578   -1.7113 N.pl3     1 <0>         0.0000
      6 N2         -4.0491   -2.2487    0.0358 N.pl3     1 <0>         0.0000
      7 O1         -6.4088    2.3075   -2.6134 O.3       1 <0>         0.0000
      8 O2         -4.9439   -3.0719    0.2320 O.3       1 <0>         0.0000
      9 O3         -7.1886    4.2208   -1.7747 O.2       1 <0>         0.0000
     10 O4         -2.9355   -2.4049   -0.4706 O.2       1 <0>         0.0000
     11 O5         -6.7221    2.4509   -0.4262 O.3       1 <0>         0.0000
     12 O6         -4.3988   -0.9426    0.4734 O.3       1 <0>         0.0000
     13 H1         -4.9971   -0.7331    3.0944 H         1 <0>         0.0000
     14 H2         -5.2609   -2.3959    2.5196 H         1 <0>         0.0000
     15 H3         -6.6421   -1.3856    2.9204 H         1 <0>         0.0000
     16 H4         -7.2327    0.6301    1.3977 H         1 <0>         0.0000
     17 H5         -5.5948    1.2321    1.5839 H         1 <0>         0.0000
     18 H6         -5.2417    1.1129   -0.8910 H         1 <0>         0.0000
     19 H7         -6.9108    0.5179   -1.0847 H         1 <0>         0.0000
     20 H8         -6.3541   -1.5265    0.4595 H         1 <0>         0.0000
@<TRIPOS>BOND
    1    1    4 1
     2    2    3 1
     3    2    4 1
     4    3   11 1
     5    4   12 1
     6    5    7 1
     7    5    9 2
     8    5   11 1
     9    6    8 1
    10    6   10 2
    11    6   12 1
    12    1   13 1
    13    1   14 1
    14    1   15 1
    15    2   16 1
    16    2   17 1
    17    3   18 1
    18    3   19 1
    19    4   20 1
