@<TRIPOS>MOLECULE
aniline
   14    14     0     0     0
SMALL
USER_CHARGES

@<TRIPOS>ATOM
      1 C1          1.8851   -1.0363   -0.1124 C.ar      1 MOL        -0.1737
      2 C2          0.8066   -0.4630    0.5610 C.ar      1 MOL        -0.0933
      3 C3          2.9210   -1.6309    0.6081 C.ar      1 MOL        -0.0933
      4 C4          0.7638   -0.4841    1.9551 C.ar      1 MOL        -0.1911
      5 C5          2.8783   -1.6520    2.0022 C.ar      1 MOL        -0.1911
      6 C6          1.7997   -1.0786    2.6757 C.ar      1 MOL         0.1388
      7 N1          1.7568   -1.1003    4.0852 N.pl3     1 MOL        -0.8208
      8 H1          1.9184   -1.0196   -1.1980 H         1 MOL         0.1296
      9 H2          0.0003   -0.0001   -0.0001 H         1 MOL         0.1292
     10 H3          3.7609   -2.0773    0.0835 H         1 MOL         0.1292
     11 H4         -0.0810   -0.0346    2.4703 H         1 MOL         0.1302
     12 H5          3.6911   -2.1183    2.5532 H         1 MOL         0.1302
     13 H6          1.0021   -0.6448    4.5574 H         1 MOL         0.3879
     14 H7          2.5279   -1.4875    4.5907 H         1 MOL         0.3879
@<TRIPOS>BOND
     1    1    2 ar
     2    1    3 ar
     3    2    4 ar
     4    3    5 ar
     5    4    6 ar
     6    5    6 ar
     7    6    7 1
     8    1    8 1
     9    2    9 1
    10    3   10 1
    11    4   11 1
    12    5   12 1
    13    7   13 1
    14    7   14 1
