@<TRIPOS>MOLECULE
5-fluoro-1H-pyrimidine-2,4-dione
   12    12     0     0     0
SMALL
USER_CHARGES

@<TRIPOS>ATOM
      1 C1          0.6610    1.3814   -0.0454 C.2       1 MOL        -0.0014
      2 C2         -0.2001    0.9155    0.8573 C.2       1 MOL        -0.0269
      3 C3         -0.7437   -0.4518    0.7476 C.2       1 MOL         0.7006
      4 C4          0.6325   -0.6865   -1.3140 C.2       1 MOL         0.8032
      5 N1          1.0723    0.6151   -1.1019 N.am      1 MOL        -0.4606
      6 N2         -0.2730   -1.1575   -0.3544 N.am      1 MOL        -0.5819
      7 O1         -1.5372   -0.8927    1.5724 O.2       1 MOL        -0.5765
      8 O2          1.0071   -1.3718   -2.2663 O.2       1 MOL        -0.6267
      9 F1         -0.6189    1.6484    1.9046 F         1 MOL        -0.1290
     10 H1          1.0776    2.3791    0.0083 H         1 MOL         0.1768
     11 H2          1.7307    1.0166   -1.7629 H         1 MOL         0.3622
     12 H3         -0.6179   -2.1056   -0.4760 H         1 MOL         0.3603
@<TRIPOS>BOND
     1    1    2 2
     2    1    5 1
     3    2    3 1
     4    2    9 1
     5    3    6 am
     6    3    7 2
     7    4    5 am
     8    4    6 am
     9    4    8 2
    10    1   10 1
    11    5   11 1
    12    6   12 1
