@<TRIPOS>MOLECULE
1,1,2-trichloro-1,2,2-trifluoro-ethane
    8     7     0     0     0
SMALL
USER_CHARGES

@<TRIPOS>ATOM
      1 C1          0.7264   -0.0219    0.2801 C.3       1 MOL         0.4952
      2 C2         -0.6579   -0.0548   -0.3579 C.3       1 MOL         0.3407
      3 F1          1.1048   -1.2900    0.5933 F         1 MOL        -0.1827
      4 F2          1.6296    0.4236   -0.6339 F         1 MOL        -0.1827
      5 F3         -0.5724   -0.8215   -1.4830 F         1 MOL        -0.1572
      6 Cl1         0.8355    0.9881    1.7370 Cl        1 MOL        -0.1258
      7 Cl2        -1.2017    1.5702   -0.8479 Cl        1 MOL        -0.0938
      8 Cl3        -1.8667   -0.8018    0.7179 Cl        1 MOL        -0.0938
@<TRIPOS>BOND
     1    1    2 1
     2    1    3 1
     3    1    4 1
     4    1    6 1
     5    2    5 1
     6    2    7 1
     7    2    8 1
