@<TRIPOS>MOLECULE
4-propylphenol
   22    22     0     0     0
SMALL
USER_CHARGES

@<TRIPOS>ATOM
      1 C1          1.8851   -1.0363   -0.1124 C.ar      1 MOL        -0.0920
      2 C2          2.8783   -1.6520    2.0022 C.ar      1 MOL        -0.0920
      3 C3          0.8066   -0.4630    0.5610 C.ar      1 MOL        -0.1832
      4 C4          1.7997   -1.0786    2.6757 C.ar      1 MOL        -0.1832
      5 C5          2.9210   -1.6309    0.6081 C.ar      1 MOL        -0.1122
      6 C6          0.7638   -0.4841    1.9551 C.ar      1 MOL         0.1196
      7 C7          4.9975   -4.3408   -1.1946 C.3       1 MOL        -0.0937
      8 C8          4.0745   -2.2433   -0.1117 C.3       1 MOL        -0.0318
      9 C9          3.8350   -3.7270   -0.4306 C.3       1 MOL        -0.0775
     10 O1         -0.2881    0.0765    2.6120 O.3       1 MOL        -0.4981
     11 H1          1.9102   -1.0154   -1.1986 H         1 MOL         0.1334
     12 H2          3.6809   -2.1132    2.5719 H         1 MOL         0.1334
     13 H3          0.0027   -0.0010   -0.0060 H         1 MOL         0.1411
     14 H4          1.7724   -1.0980    3.7615 H         1 MOL         0.1411
     15 H5          5.1786   -3.8035   -2.1310 H         1 MOL         0.0333
     16 H6          5.9156   -4.3145   -0.5992 H         1 MOL         0.0333
     17 H7          4.7810   -5.3854   -1.4391 H         1 MOL         0.0333
     18 H8          4.2767   -1.7011   -1.0513 H         1 MOL         0.0460
     19 H9          4.9982   -2.1479    0.4844 H         1 MOL         0.0460
     20 H10         3.6809   -4.2875    0.4995 H         1 MOL         0.0427
     21 H11         2.9182   -3.8374   -1.0225 H         1 MOL         0.0427
     22 H12        -0.1742   -0.0173    3.5713 H         1 MOL         0.4178
@<TRIPOS>BOND
     1    1    3 ar
     2    1    5 ar
     3    2    4 ar
     4    2    5 ar
     5    3    6 ar
     6    4    6 ar
     7    5    8 1
     8    6   10 1
     9    7    9 1
    10    8    9 1
    11    1   11 1
    12    2   12 1
    13    3   13 1
    14    4   14 1
    15    7   15 1
    16    7   16 1
    17    7   17 1
    18    8   18 1
    19    8   19 1
    20    9   20 1
    21    9   21 1
    22   10   22 1
