@<TRIPOS>MOLECULE
1,2,4-trichlorobenzene
   12    12     0     0     0
SMALL
USER_CHARGES

@<TRIPOS>ATOM
      1 C1          1.8851   -1.0363   -0.1124 C.ar      1 MOL        -0.1178
      2 C2          0.8066   -0.4630    0.5610 C.ar      1 MOL        -0.1094
      3 C3          2.8783   -1.6520    2.0022 C.ar      1 MOL        -0.1142
      4 C4          2.9210   -1.6309    0.6081 C.ar      1 MOL         0.0228
      5 C5          0.7638   -0.4841    1.9551 C.ar      1 MOL         0.0158
      6 C6          1.7997   -1.0786    2.6757 C.ar      1 MOL         0.0253
      7 Cl1         4.2503   -2.3398   -0.2238 Cl        1 MOL        -0.0771
      8 Cl2        -0.5980    0.2448    2.7312 Cl        1 MOL        -0.0609
      9 Cl3         1.8039   -1.1350    4.4036 Cl        1 MOL        -0.0623
     10 H1          1.9040   -1.0140   -1.1991 H         1 MOL         0.1555
     11 H2          0.0074   -0.0053   -0.0167 H         1 MOL         0.1565
     12 H3          3.6877   -2.1166    2.5616 H         1 MOL         0.1658
@<TRIPOS>BOND
     1    1    2 ar
     2    1    4 ar
     3    2    5 ar
     4    3    4 ar
     5    3    6 ar
     6    4    7 1
     7    5    6 ar
     8    5    8 1
     9    6    9 1
    10    1   10 1
    11    2   11 1
    12    3   12 1
