@<TRIPOS>MOLECULE
methylsulfanylethane
   12    11     0     0     0
SMALL
USER_CHARGES

@<TRIPOS>ATOM
      1 C1          2.8444   -1.6729    3.2549 C.3       1 MOL        -0.0830
      2 C2          1.6449    1.5272    0.9245 C.3       1 MOL        -0.0406
      3 C3          2.8855   -0.4869    2.3101 C.3       1 MOL        -0.0146
      4 S1          1.2245    0.1824    2.0582 S.3       1 MOL        -0.2959
      5 H1          2.4373   -1.3941    4.2327 H         1 MOL         0.0455
      6 H2          2.2418   -2.4916    2.8472 H         1 MOL         0.0455
      7 H3          3.8575   -2.0562    3.4159 H         1 MOL         0.0455
      8 H4          0.7408    2.0731    0.6438 H         1 MOL         0.0620
      9 H5          2.1102    1.1209    0.0230 H         1 MOL         0.0620
     10 H6          2.3425    2.2156    1.4077 H         1 MOL         0.0620
     11 H7          3.2950   -0.7880    1.3411 H         1 MOL         0.0558
     12 H8          3.5247    0.3014    2.7191 H         1 MOL         0.0558
@<TRIPOS>BOND
     1    1    3 1
     2    2    4 1
     3    3    4 1
     4    1    5 1
     5    1    6 1
     6    1    7 1
     7    2    8 1
     8    2    9 1
     9    2   10 1
    10    3   11 1
    11    3   12 1
