@<TRIPOS>MOLECULE
1-chloropropane
   11    10     0     0     0
SMALL
USER_CHARGES

@<TRIPOS>ATOM
      1 C1          0.3674    0.5015    0.9011 C.3       1 MOL        -0.0956
      2 C2          0.8898   -0.5275    1.8937 C.3       1 MOL        -0.0894
      3 C3          1.5185    0.0929    3.1358 C.3       1 MOL         0.0395
      4 Cl1         0.3557    1.0812    4.0495 Cl        1 MOL        -0.2014
      5 H1          1.1610    1.1922    0.5987 H         1 MOL         0.0403
      6 H2         -0.0044   -0.0003    0.0020 H         1 MOL         0.0403
      7 H3         -0.4575    1.0852    1.3200 H         1 MOL         0.0403
      8 H4          0.0767   -1.2052    2.1794 H         1 MOL         0.0503
      9 H5          1.6480   -1.1389    1.3902 H         1 MOL         0.0503
     10 H6          2.3682    0.7300    2.8725 H         1 MOL         0.0627
     11 H7          1.8751   -0.6925    3.8090 H         1 MOL         0.0627
@<TRIPOS>BOND
     1    1    2 1
     2    2    3 1
     3    3    4 1
     4    1    5 1
     5    1    6 1
     6    1    7 1
     7    2    8 1
     8    2    9 1
     9    3   10 1
    10    3   11 1
