@<TRIPOS>MOLECULE
chloromethylbenzene
   15    15     0     0     0
SMALL
USER_CHARGES

@<TRIPOS>ATOM
      1 C1          1.8851   -1.0363   -0.1124 C.ar      1 MOL        -0.1197
      2 C2          0.8066   -0.4630    0.5610 C.ar      1 MOL        -0.1312
      3 C3          2.9210   -1.6309    0.6081 C.ar      1 MOL        -0.1312
      4 C4          0.7638   -0.4841    1.9551 C.ar      1 MOL        -0.1089
      5 C5          2.8783   -1.6520    2.0022 C.ar      1 MOL        -0.1089
      6 C6          1.7997   -1.0786    2.6757 C.ar      1 MOL        -0.1044
      7 C7          1.7548   -1.1014    4.1663 C.3       1 MOL         0.0851
      8 Cl1         0.5876   -2.3131    4.7413 Cl        1 MOL        -0.1936
      9 H1          1.9176   -1.0210   -1.1980 H         1 MOL         0.1329
     10 H2         -0.0006   -0.0010    0.0001 H         1 MOL         0.1341
     11 H3          3.7604   -2.0783    0.0841 H         1 MOL         0.1341
     12 H4         -0.0804   -0.0348    2.4713 H         1 MOL         0.1356
     13 H5          3.6899   -2.1173    2.5553 H         1 MOL         0.1356
     14 H6          1.4593   -0.1259    4.5748 H         1 MOL         0.0702
     15 H7          2.7358   -1.3460    4.5948 H         1 MOL         0.0702
@<TRIPOS>BOND
     1    1    2 ar
     2    1    3 ar
     3    2    4 ar
     4    3    5 ar
     5    4    6 ar
     6    5    6 ar
     7    6    7 1
     8    7    8 1
     9    1    9 1
    10    2   10 1
    11    3   11 1
    12    4   12 1
    13    5   13 1
    14    7   14 1
    15    7   15 1
