@<TRIPOS>MOLECULE
2-nitropropane
   13    12     0     0     0
SMALL
USER_CHARGES

@<TRIPOS>ATOM
      1 C1         -0.5137   -0.3855    0.8876 C.3       1 MOL        -0.1145
      2 C2          1.0239    0.8723    2.4396 C.3       1 MOL        -0.1145
      3 C3          0.4302   -0.4776    2.0742 C.3       1 MOL        -0.0459
      4 N1          1.5275   -1.3832    1.7191 N.pl3     1 MOL         0.2192
      5 O1          1.6800   -2.4140    2.4029 O.3       1 MOL        -0.2121
      6 O2          2.2370   -1.0802    0.7401 O.2       1 MOL        -0.2121
      7 H1         -0.0066    0.0382    0.0151 H         1 MOL         0.0634
      8 H2         -0.9042   -1.3715    0.6129 H         1 MOL         0.0634
      9 H3         -1.3720    0.2514    1.1271 H         1 MOL         0.0634
     10 H4          1.5493    1.3064    1.5822 H         1 MOL         0.0634
     11 H5          1.7371    0.7762    3.2644 H         1 MOL         0.0634
     12 H6          0.2446    1.5815    2.7394 H         1 MOL         0.0634
     13 H7         -0.0924   -0.9028    2.9373 H         1 MOL         0.0996
@<TRIPOS>BOND
     1    1    3 1
     2    2    3 1
     3    3    4 1
     4    4    5 1
     5    4    6 2
     6    1    7 1
     7    1    8 1
     8    1    9 1
     9    2   10 1
    10    2   11 1
    11    2   12 1
    12    3   13 1
