@<TRIPOS>MOLECULE
SAMPL4_029
   23    22     0     0     0
SMALL
bcc

@<TRIPOS>ATOM
      1 C1         -7.7168    4.9228   -1.8206 C.3       1 MOL        -0.093100
      2 C2         -6.9163    3.6584   -2.0942 C.3       1 MOL        -0.080400
      3 C3         -6.8862    2.7424   -0.8700 C.3       1 MOL        -0.079400
      4 C4         -6.0319    1.4874   -1.0696 C.3       1 MOL        -0.078400
      5 C5         -6.0216    0.5599    0.1445 C.3       1 MOL        -0.087400
      6 C6         -5.1342   -0.6557   -0.0886 C.3       1 MOL         0.133400
      7 N1         -4.3782   -2.6559    0.9543 N.pl3     1 MOL         0.377200
      8 O1         -4.4249   -3.3644    1.9607 O.2       1 MOL        -0.184500
      9 O2         -3.7532   -2.8233   -0.0955 O.2       1 MOL        -0.184500
     10 O3         -5.1775   -1.4840    1.0651 O.3       1 MOL        -0.350000
     11 H1         -8.7420    4.6676   -1.5347 H         1 MOL         0.035033
     12 H2         -7.2704    5.5009   -1.0052 H         1 MOL         0.035033
     13 H3         -7.7610    5.5596   -2.7099 H         1 MOL         0.035033
     14 H4         -5.8945    3.9349   -2.3783 H         1 MOL         0.039700
     15 H5         -7.3640    3.1393   -2.9481 H         1 MOL         0.039700
     16 H6         -7.9086    2.4522   -0.5988 H         1 MOL         0.043700
     17 H7         -6.4800    3.2995   -0.0165 H         1 MOL         0.043700
     18 H8         -5.0041    1.8051   -1.2855 H         1 MOL         0.044700
     19 H9         -6.3841    0.9393   -1.9520 H         1 MOL         0.044700
     20 H10        -7.0356    0.2171    0.3805 H         1 MOL         0.064700
     21 H11        -5.6709    1.1000    1.0326 H         1 MOL         0.064700
     22 H12        -5.4854   -1.2361   -0.9476 H         1 MOL         0.067700
     23 H13        -4.0961   -0.3547   -0.2619 H         1 MOL         0.067700
@<TRIPOS>BOND
     1    1    2 1
     2    2    3 1
     3    3    4 1
     4    4    5 1
     5    5    6 1
     6    6   10 1
     7    7    8 2
     8    7    9 2
     9    7   10 1
    10    1   11 1
    11    1   12 1
    12    1   13 1
    13    2   14 1
    14    2   15 1
    15    3   16 1
    16    3   17 1
    17    4   18 1
    18    4   19 1
    19    5   20 1
    20    5   21 1
    21    6   22 1
    22    6   23 1
