@<TRIPOS>MOLECULE
2-iodophenol
   13    13     0     0     0
SMALL
USER_CHARGES

@<TRIPOS>ATOM
      1 C1          1.8851   -1.0363   -0.1124 C.ar      1 MOL        -0.0739
      2 C2          0.8066   -0.4630    0.5610 C.ar      1 MOL        -0.1702
      3 C3          2.9210   -1.6309    0.6081 C.ar      1 MOL        -0.2186
      4 C4          0.7638   -0.4841    1.9551 C.ar      1 MOL        -0.0657
      5 C5          2.8783   -1.6520    2.0022 C.ar      1 MOL         0.1604
      6 C6          1.7997   -1.0786    2.6757 C.ar      1 MOL        -0.0079
      7 O1          3.9110   -2.2423    2.6687 O.3       1 MOL        -0.4848
      8 I1          1.6869   -1.0833    4.7623 I         1 MOL        -0.1231
      9 H1          1.9181   -1.0201   -1.1979 H         1 MOL         0.1354
     10 H2         -0.0001   -0.0006   -0.0004 H         1 MOL         0.1405
     11 H3          3.7579   -2.0754    0.0763 H         1 MOL         0.1379
     12 H4         -0.0872   -0.0312    2.4575 H         1 MOL         0.1460
     13 H5          4.5645   -2.5822    2.0381 H         1 MOL         0.4240
@<TRIPOS>BOND
     1    1    2 ar
     2    1    3 ar
     3    2    4 ar
     4    3    5 ar
     5    4    6 ar
     6    5    6 ar
     7    5    7 1
     8    6    8 1
     9    1    9 1
    10    2   10 1
    11    3   11 1
    12    4   12 1
    13    7   13 1
