@<TRIPOS>MOLECULE
1,1-difluoroethane
    8     7     0     0     0
SMALL
USER_CHARGES

@<TRIPOS>ATOM
      1 C1         -0.3709    0.2934   -0.6159 C.3       1 MOL        -0.1522
      2 C2          0.3057   -0.3499    0.5679 C.3       1 MOL         0.3988
      3 F1          0.0615    0.3815    1.6825 F         1 MOL        -0.2494
      4 F2          1.6481   -0.3449    0.3808 F         1 MOL        -0.2494
      5 H1         -0.0095    1.3183   -0.7472 H         1 MOL         0.0636
      6 H2         -0.1530   -0.2584   -1.5346 H         1 MOL         0.0636
      7 H3         -1.4535    0.3373   -0.4674 H         1 MOL         0.0636
      8 H4         -0.0285   -1.3774    0.7339 H         1 MOL         0.0614
@<TRIPOS>BOND
     1    1    2 1
     2    2    3 1
     3    2    4 1
     4    1    5 1
     5    1    6 1
     6    1    7 1
     7    2    8 1
