@<TRIPOS>MOLECULE
trimethoxymethane
   17    16     0     0     0
SMALL
USER_CHARGES

@<TRIPOS>ATOM
      1 C1         -0.6613    0.2820   -0.8336 C.3       1 MOL         0.1210
      2 C2         -0.8937   -1.5019   -4.5009 C.3       1 MOL         0.1210
      3 C3          0.7722    2.3286   -3.5750 C.3       1 MOL         0.1210
      4 C4         -0.6863    0.4751   -3.1994 C.3       1 MOL         0.5008
      5 O1          0.0234    0.0004   -2.0470 O.3       1 MOL        -0.4177
      6 O2         -0.2849   -0.2223   -4.3889 O.3       1 MOL        -0.4177
      7 O3         -0.5679    1.8974   -3.3756 O.3       1 MOL        -0.4177
      8 H1         -0.0807   -0.0988    0.0102 H         1 MOL         0.0386
      9 H2         -1.6475   -0.1885   -0.8530 H         1 MOL         0.0386
     10 H3         -0.7779    1.3638   -0.7340 H         1 MOL         0.0386
     11 H4         -0.5557   -1.9879   -5.4195 H         1 MOL         0.0386
     12 H5         -1.9807   -1.3894   -4.5143 H         1 MOL         0.0386
     13 H6         -0.6029   -2.1104   -3.6413 H         1 MOL         0.0386
     14 H7          0.7916    3.4138   -3.7015 H         1 MOL         0.0386
     15 H8          1.1850    1.8403   -4.4614 H         1 MOL         0.0386
     16 H9          1.3675    2.0553   -2.7005 H         1 MOL         0.0386
     17 H10        -1.7581    0.2871   -3.0579 H         1 MOL         0.0421
@<TRIPOS>BOND
     1    1    5 1
     2    2    6 1
     3    3    7 1
     4    4    5 1
     5    4    6 1
     6    4    7 1
     7    1    8 1
     8    1    9 1
     9    1   10 1
    10    2   11 1
    11    2   12 1
    12    2   13 1
    13    3   14 1
    14    3   15 1
    15    3   16 1
    16    4   17 1
