@<TRIPOS>MOLECULE
diethoxy-(ethylsulfanylmethylsulfanyl)-thioxo-$l^{5}-phosphane
   30    29     0     0     0
SMALL
USER_CHARGES

@<TRIPOS>ATOM
      1 C1         -2.0248    2.2472   -2.1263 C.3       1 MOL        -0.0955
      2 C2         -1.3339    0.5425    3.9124 C.3       1 MOL        -0.0955
      3 C3          1.1064   -5.4143   -1.2948 C.3       1 MOL        -0.0833
      4 C4         -0.6383    2.2778   -1.5194 C.3       1 MOL         0.1317
      5 C5         -0.9707    1.4464    2.7536 C.3       1 MOL         0.1317
      6 C6          0.5973   -4.0936   -0.7493 C.3       1 MOL        -0.0234
      7 C7          0.9254   -1.4222   -0.2152 C.3       1 MOL         0.1613
      8 O1         -0.6840    1.6834   -0.2332 O.3       1 MOL        -0.4743
      9 O2          0.0608    0.8350    1.9966 O.3       1 MOL        -0.4743
     10 P1          0.6724    1.5724    0.6709 P.3       1 MOL         0.8419
     11 S1          1.4880    3.3084    1.0816 S.2       1 MOL        -0.5175
     12 S2          1.8459   -2.8007   -0.9479 S.3       1 MOL        -0.2152
     13 S3          1.9068    0.0994   -0.2400 S.3       1 MOL        -0.3390
     14 H1         -2.3829    1.2191   -2.2296 H         1 MOL         0.0571
     15 H2         -2.7310    2.8067   -1.5042 H         1 MOL         0.0571
     16 H3         -2.0246    2.7219   -3.1132 H         1 MOL         0.0571
     17 H4         -1.6918   -0.4267    3.5540 H         1 MOL         0.0571
     18 H5         -0.4677    0.3812    4.5624 H         1 MOL         0.0571
     19 H6         -2.1139    1.0008    4.5295 H         1 MOL         0.0571
     20 H7          1.3547   -5.3407   -2.3591 H         1 MOL         0.0479
     21 H8          1.9939   -5.7583   -0.7529 H         1 MOL         0.0479
     22 H9          0.3346   -6.1838   -1.1880 H         1 MOL         0.0479
     23 H10        -0.2862    3.3088   -1.4189 H         1 MOL         0.0661
     24 H11         0.0658    1.7176   -2.1419 H         1 MOL         0.0661
     25 H12        -0.6137    2.4139    3.1190 H         1 MOL         0.0661
     26 H13        -1.8371    1.6058    2.1048 H         1 MOL         0.0661
     27 H14         0.3558   -4.1902    0.3136 H         1 MOL         0.0603
     28 H15        -0.3112   -3.7901   -1.2781 H         1 MOL         0.0603
     29 H16         0.0044   -1.2559   -0.7804 H         1 MOL         0.0901
     30 H17         0.6718   -1.6604    0.8213 H         1 MOL         0.0901
@<TRIPOS>BOND
     1    1    4 1
     2    2    5 1
     3    3    6 1
     4    4    8 1
     5    5    9 1
     6    6   12 1
     7    7   12 1
     8    7   13 1
     9    8   10 1
    10    9   10 1
    11   10   11 2
    12   10   13 1
    13    1   14 1
    14    1   15 1
    15    1   16 1
    16    2   17 1
    17    2   18 1
    18    2   19 1
    19    3   20 1
    20    3   21 1
    21    3   22 1
    22    4   23 1
    23    4   24 1
    24    5   25 1
    25    5   26 1
    26    6   27 1
    27    6   28 1
    28    7   29 1
    29    7   30 1
