@<TRIPOS>MOLECULE
1-methylnaphthalene
   21    22     0     0     0
SMALL
USER_CHARGES

@<TRIPOS>ATOM
      1 C1         -0.4966   -2.0341    0.4940 C.ar      1 MOL        -0.1280
      2 C2          0.3500   -1.0275    0.0392 C.ar      1 MOL        -0.1294
      3 C3          3.0228   -5.3167   -0.2210 C.ar      1 MOL        -0.1235
      4 C4         -0.0479   -3.3542    0.5448 C.ar      1 MOL        -0.1184
      5 C5          1.6484   -1.3369   -0.3665 C.ar      1 MOL        -0.1184
      6 C6          1.7243   -5.0072    0.1848 C.ar      1 MOL        -0.1228
      7 C7          3.8693   -4.3100   -0.6758 C.ar      1 MOL        -0.1328
      8 C8          1.2560   -3.6839    0.1403 C.ar      1 MOL        -0.0347
      9 C9          2.1168   -2.6602   -0.3222 C.ar      1 MOL        -0.0302
     10 C10         3.4207   -2.9899   -0.7267 C.ar      1 MOL        -0.0628
     11 C11         4.3825   -1.9565   -1.2260 C.3       1 MOL        -0.0561
     12 H1         -1.5073   -1.7925    0.8097 H         1 MOL         0.1314
     13 H2         -0.0002   -0.0000    0.0001 H         1 MOL         0.1310
     14 H3          3.3726   -6.3442   -0.1818 H         1 MOL         0.1313
     15 H4         -0.7268   -4.1249    0.9038 H         1 MOL         0.1319
     16 H5          2.2793   -0.5228   -0.7155 H         1 MOL         0.1327
     17 H6          1.0800   -5.8102    0.5367 H         1 MOL         0.1320
     18 H7          4.8787   -4.5638   -0.9892 H         1 MOL         0.1310
     19 H8          4.2879   -1.8482   -2.3113 H         1 MOL         0.0452
     20 H9          4.1931   -0.9849   -0.7566 H         1 MOL         0.0452
     21 H10         5.4153   -2.2340   -0.9876 H         1 MOL         0.0452
@<TRIPOS>BOND
     1    1    2 ar
     2    1    4 ar
     3    2    5 ar
     4    3    6 ar
     5    3    7 ar
     6    4    8 ar
     7    5    9 ar
     8    6    8 ar
     9    7   10 ar
    10    8    9 ar
    11    9   10 ar
    12   10   11 1
    13    1   12 1
    14    2   13 1
    15    3   14 1
    16    4   15 1
    17    5   16 1
    18    6   17 1
    19    7   18 1
    20   11   19 1
    21   11   20 1
    22   11   21 1
