@<TRIPOS>MOLECULE
1-(2-hydroxyethylamino)anthracene-9,10-dione
   33    35     0     0     0
SMALL
USER_CHARGES

@<TRIPOS>ATOM
      1 C1          1.2904   -1.6865   -0.3516 C.ar      1 MOL        -0.1192
      2 C2          0.9563   -0.4630    0.2256 C.ar      1 MOL        -0.1178
      3 C3          7.7766   -1.5826    3.1822 C.ar      1 MOL        -0.0701
      4 C4          2.5179   -2.2839   -0.0640 C.ar      1 MOL        -0.0859
      5 C5          1.8484    0.1684    1.0928 C.ar      1 MOL        -0.0880
      6 C6          6.8845   -2.2140    2.3149 C.ar      1 MOL        -0.1416
      7 C7          7.4425   -0.3591    3.7594 C.ar      1 MOL        -0.1913
      8 C8          3.4160   -1.6538    0.8057 C.ar      1 MOL        -0.1273
      9 C9          3.0812   -0.4277    1.3842 C.ar      1 MOL        -0.1283
     10 C10         5.6516   -1.6180    2.0237 C.ar      1 MOL        -0.0819
     11 C11         5.3168   -0.3919    2.6022 C.ar      1 MOL        -0.2212
     12 C12         6.2150    0.2382    3.4720 C.ar      1 MOL         0.2443
     13 C13         4.7134   -2.2938    1.1043 C.2       1 MOL         0.5828
     14 C14         4.0194    0.2481    2.3036 C.2       1 MOL         0.6033
     15 C15         6.8690    2.1141    4.9816 C.3       1 MOL         0.2022
     16 C16         6.2653    3.4045    5.5052 C.3       1 MOL         0.1191
     17 N1          5.9467    1.4787    4.0953 N.pl3     1 MOL        -0.7624
     18 O1          5.0075   -3.3691    0.5970 O.2       1 MOL        -0.5253
     19 O2          3.6911    1.3222    2.7914 O.2       1 MOL        -0.5783
     20 O3          6.0170    4.2853    4.4169 O.3       1 MOL        -0.5979
     21 H1          0.5941   -2.1759   -1.0263 H         1 MOL         0.1394
     22 H2          0.0002    0.0001   -0.0002 H         1 MOL         0.1411
     23 H3          8.7334   -2.0451    3.4074 H         1 MOL         0.1404
     24 H4          2.7545   -3.2381   -0.5267 H         1 MOL         0.1594
     25 H5          1.5620    1.1218    1.5285 H         1 MOL         0.1612
     26 H6          7.1685   -3.1675    1.8781 H         1 MOL         0.1603
     27 H7          8.1494    0.1194    4.4330 H         1 MOL         0.1441
     28 H8          7.7968    2.3041    4.4326 H         1 MOL         0.0550
     29 H9          7.0760    1.4276    5.8081 H         1 MOL         0.0550
     30 H10         6.9668    3.8974    6.1855 H         1 MOL         0.0340
     31 H11         5.3236    3.2231    6.0333 H         1 MOL         0.0340
     32 H12         5.0651    1.9055    3.8892 H         1 MOL         0.4523
     33 H13         5.6334    5.0935    4.7935 H         1 MOL         0.4085
@<TRIPOS>BOND
     1    1    2 ar
     2    1    4 ar
     3    2    5 ar
     4    3    6 ar
     5    3    7 ar
     6    4    8 ar
     7    5    9 ar
     8    6   10 ar
     9    7   12 ar
    10    8    9 ar
    11    8   13 1
    12    9   14 1
    13   10   11 ar
    14   10   13 1
    15   11   12 ar
    16   11   14 1
    17   12   17 1
    18   13   18 2
    19   14   19 2
    20   15   16 1
    21   15   17 1
    22   16   20 1
    23    1   21 1
    24    2   22 1
    25    3   23 1
    26    4   24 1
    27    5   25 1
    28    6   26 1
    29    7   27 1
    30   15   28 1
    31   15   29 1
    32   16   30 1
    33   16   31 1
    34   17   32 1
    35   20   33 1
