@<TRIPOS>MOLECULE
4-fluorophenol
   13    13     0     0     0
SMALL
USER_CHARGES

@<TRIPOS>ATOM
      1 C1          1.8851   -1.0363   -0.1124 C.ar      1 MOL        -0.1614
      2 C2          2.8783   -1.6520    2.0022 C.ar      1 MOL        -0.1614
      3 C3          0.8066   -0.4630    0.5610 C.ar      1 MOL        -0.1287
      4 C4          1.7997   -1.0786    2.6757 C.ar      1 MOL        -0.1287
      5 C5          2.9210   -1.6309    0.6081 C.ar      1 MOL         0.1106
      6 C6          0.7638   -0.4841    1.9551 C.ar      1 MOL         0.0885
      7 O1          3.9735   -2.1903   -0.0490 O.3       1 MOL        -0.4945
      8 F1         -0.2720    0.0665    2.6018 F         1 MOL        -0.1421
      9 H1          1.9127   -1.0167   -1.1985 H         1 MOL         0.1477
     10 H2          3.6821   -2.1136    2.5691 H         1 MOL         0.1477
     11 H3         -0.0001   -0.0001    0.0004 H         1 MOL         0.1510
     12 H4          1.7661   -1.0949    3.7610 H         1 MOL         0.1510
     13 H5          4.6077   -2.5606    0.5854 H         1 MOL         0.4204
@<TRIPOS>BOND
     1    1    3 ar
     2    1    5 ar
     3    2    4 ar
     4    2    5 ar
     5    3    6 ar
     6    4    6 ar
     7    5    7 1
     8    6    8 1
     9    1    9 1
    10    2   10 1
    11    3   11 1
    12    4   12 1
    13    7   13 1
