@<TRIPOS>MOLECULE
1-iodoheptane
   23    22     0     0     0
SMALL
USER_CHARGES

@<TRIPOS>ATOM
      1 C1         -2.0658   -3.5117    0.1290 C.3       1 MOL        -0.0918
      2 C2         -0.8757   -2.5954    0.3681 C.3       1 MOL        -0.0801
      3 C3         -1.0579   -1.1921   -0.2142 C.3       1 MOL        -0.0787
      4 C4          0.1697   -0.2964   -0.0340 C.3       1 MOL        -0.0781
      5 C5         -0.0768    1.1021   -0.6048 C.3       1 MOL        -0.0800
      6 C6          1.1604    1.9905   -0.4558 C.3       1 MOL        -0.0761
      7 C7          0.8963    3.3973   -0.9907 C.3       1 MOL         0.0671
      8 I1          2.6436    4.6158   -0.8048 I         1 MOL        -0.2524
      9 H1         -2.9806   -3.1046    0.5693 H         1 MOL         0.0333
     10 H2         -2.2347   -3.6662   -0.9413 H         1 MOL         0.0333
     11 H3         -1.8847   -4.4891    0.5878 H         1 MOL         0.0333
     12 H4          0.0104   -3.0493   -0.0918 H         1 MOL         0.0381
     13 H5         -0.6758   -2.5303    1.4440 H         1 MOL         0.0381
     14 H6         -1.9341   -0.7158    0.2424 H         1 MOL         0.0392
     15 H7         -1.2749   -1.2916   -1.2848 H         1 MOL         0.0392
     16 H8          1.0330   -0.7505   -0.5352 H         1 MOL         0.0414
     17 H9          0.4187   -0.2101    1.0297 H         1 MOL         0.0414
     18 H10        -0.9259    1.5649   -0.0871 H         1 MOL         0.0413
     19 H11        -0.3470    1.0243   -1.6650 H         1 MOL         0.0413
     20 H12         2.0015    1.5362   -0.9944 H         1 MOL         0.0537
     21 H13         1.4476    2.0394    0.6021 H         1 MOL         0.0537
     22 H14         0.0711    3.8607   -0.4386 H         1 MOL         0.0714
     23 H15         0.5985    3.3493   -2.0441 H         1 MOL         0.0714
@<TRIPOS>BOND
     1    1    2 1
     2    2    3 1
     3    3    4 1
     4    4    5 1
     5    5    6 1
     6    6    7 1
     7    7    8 1
     8    1    9 1
     9    1   10 1
    10    1   11 1
    11    2   12 1
    12    2   13 1
    13    3   14 1
    14    3   15 1
    15    4   16 1
    16    4   17 1
    17    5   18 1
    18    5   19 1
    19    6   20 1
    20    6   21 1
    21    7   22 1
    22    7   23 1
