@<TRIPOS>MOLECULE
3,5,5-trimethylcyclohex-2-en-1-one
   24    24     0     0     0
SMALL
USER_CHARGES

@<TRIPOS>ATOM
      1 C1          1.7066   -1.2020    2.2557 C.2       1 MOL        -0.2596
      2 C2          0.9790   -1.4745    1.1625 C.2       1 MOL        -0.0369
      3 C3          2.4902    0.0535    2.3483 C.2       1 MOL         0.5660
      4 C4          0.9390   -0.5680   -0.0429 C.3       1 MOL        -0.0542
      5 C5          2.3870    1.0607    1.2228 C.3       1 MOL        -0.1743
      6 C6          2.1416    0.3972   -0.1424 C.3       1 MOL        -0.0445
      7 C7          0.1358   -2.7138    1.0776 C.3       1 MOL        -0.0768
      8 C8          3.4058   -0.3591   -0.6038 C.3       1 MOL        -0.0900
      9 C9          1.8307    1.4850   -1.1861 C.3       1 MOL        -0.0900
     10 O1          3.1579    0.2806    3.3559 O.2       1 MOL        -0.5401
     11 H1          1.7304   -1.8664    3.1125 H         1 MOL         0.1506
     12 H2          0.8938   -1.1757   -0.9562 H         1 MOL         0.0583
     13 H3          0.0000   -0.0000    0.0000 H         1 MOL         0.0583
     14 H4          1.5691    1.7461    1.4775 H         1 MOL         0.0723
     15 H5          3.3158    1.6435    1.1976 H         1 MOL         0.0723
     16 H6         -0.8602   -2.5000    1.4573 H         1 MOL         0.0510
     17 H7          0.5917   -3.5032    1.6706 H         1 MOL         0.0510
     18 H8          0.0708   -3.0367    0.0413 H         1 MOL         0.0510
     19 H9          4.2318    0.3391   -0.6650 H         1 MOL         0.0393
     20 H10         3.2193   -0.7968   -1.5770 H         1 MOL         0.0393
     21 H11         3.6327   -1.1378    0.1143 H         1 MOL         0.0393
     22 H12         2.6742    2.1634   -1.2570 H         1 MOL         0.0393
     23 H13         0.9459    2.0322   -0.8788 H         1 MOL         0.0393
     24 H14         1.6557    1.0166   -2.1488 H         1 MOL         0.0393
@<TRIPOS>BOND
     1    1    2 2
     2    1    3 1
     3    2    4 1
     4    2    7 1
     5    3    5 1
     6    3   10 2
     7    4    6 1
     8    5    6 1
     9    6    8 1
    10    6    9 1
    11    1   11 1
    12    4   12 1
    13    4   13 1
    14    5   14 1
    15    5   15 1
    16    7   16 1
    17    7   17 1
    18    7   18 1
    19    8   19 1
    20    8   20 1
    21    8   21 1
    22    9   22 1
    23    9   23 1
    24    9   24 1
