@<TRIPOS>MOLECULE
(2Z)-3,7-dimethylocta-2,6-dien-1-ol
   29    28     0     0     0
SMALL
USER_CHARGES

@<TRIPOS>ATOM
      1 C1         -3.1441   -1.8410    2.3443 C.2       1 MOL        -0.1793
      2 C2         -0.6071    0.4336    0.8449 C.2       1 MOL        -0.1806
      3 C3         -3.1921   -3.0462    1.7459 C.2       1 MOL        -0.1167
      4 C4         -1.9422    0.4040    0.6655 C.2       1 MOL        -0.1055
      5 C5         -2.3647   -4.1892    2.2714 C.3       1 MOL        -0.0608
      6 C6         -4.0167   -3.3842    0.5367 C.3       1 MOL        -0.0608
      7 C7         -2.5128    0.1843   -0.7124 C.3       1 MOL        -0.0612
      8 C8         -3.8947   -0.5912    1.9759 C.3       1 MOL        -0.0426
      9 C9          0.1454    0.6243    2.1232 C.3       1 MOL         0.1661
     10 C10        -2.9673    0.6120    1.7607 C.3       1 MOL        -0.0448
     11 O1          0.9856    1.7628    1.9888 O.3       1 MOL        -0.6014
     12 H1         -2.4929   -1.7268    3.2104 H         1 MOL         0.1178
     13 H2          0.0286    0.2819   -0.0268 H         1 MOL         0.1406
     14 H3         -2.9300   -4.7525    3.0212 H         1 MOL         0.0410
     15 H4         -2.0707   -4.8897    1.4828 H         1 MOL         0.0410
     16 H5         -1.4489   -3.8110    2.7373 H         1 MOL         0.0410
     17 H6         -3.4401   -3.1971   -0.3751 H         1 MOL         0.0410
     18 H7         -4.3487   -4.4235    0.5089 H         1 MOL         0.0410
     19 H8         -4.9158   -2.7592    0.5095 H         1 MOL         0.0410
     20 H9         -2.6553   -0.8855   -0.8972 H         1 MOL         0.0426
     21 H10        -1.8392    0.5822   -1.4772 H         1 MOL         0.0426
     22 H11        -3.4840    0.6731   -0.8441 H         1 MOL         0.0426
     23 H12        -4.5444   -0.7361    1.1083 H         1 MOL         0.0517
     24 H13        -4.5716   -0.3601    2.8086 H         1 MOL         0.0517
     25 H14         0.7762   -0.2515    2.3066 H         1 MOL         0.0289
     26 H15        -0.4956    0.7703    2.9943 H         1 MOL         0.0289
     27 H16        -3.5813    1.4832    1.4962 H         1 MOL         0.0479
     28 H17        -2.4907    0.8877    2.7079 H         1 MOL         0.0479
     29 H18         1.4598    1.8618    2.8302 H         1 MOL         0.3986
@<TRIPOS>BOND
     1    1    3 2
     2    1    8 1
     3    2    4 2
     4    2    9 1
     5    3    5 1
     6    3    6 1
     7    4    7 1
     8    4   10 1
     9    8   10 1
    10    9   11 1
    11    1   12 1
    12    2   13 1
    13    5   14 1
    14    5   15 1
    15    5   16 1
    16    6   17 1
    17    6   18 1
    18    6   19 1
    19    7   20 1
    20    7   21 1
    21    7   22 1
    22    8   23 1
    23    8   24 1
    24    9   25 1
    25    9   26 1
    26   10   27 1
    27   10   28 1
    28   11   29 1
