@<TRIPOS>MOLECULE
isopropyl acetate
   17    16     0     0     0
SMALL
USER_CHARGES

@<TRIPOS>ATOM
      1 C1          0.3746    2.8740    2.3101 C.2       1 MOL         0.6457
      2 C2         -0.1643    4.2196    1.9295 C.3       1 MOL        -0.1658
      3 C3          1.0765    0.0499    0.1958 C.3       1 MOL        -0.1115
      4 C4          2.8427    1.0382    1.6976 C.3       1 MOL        -0.1115
      5 C5          1.3532    0.9191    1.4130 C.3       1 MOL         0.1679
      6 O1          0.4075    2.4483    3.4568 O.2       1 MOL        -0.5016
      7 O2          0.8123    2.2184    1.1940 O.3       1 MOL        -0.4810
      8 H1          0.6367    4.9623    1.9606 H         1 MOL         0.0741
      9 H2         -0.9757    4.4991    2.6062 H         1 MOL         0.0741
     10 H3         -0.5606    4.1766    0.9108 H         1 MOL         0.0741
     11 H4          1.5701    0.4471   -0.6963 H         1 MOL         0.0493
     12 H5          1.4331   -0.9713    0.3679 H         1 MOL         0.0493
     13 H6          0.0011   -0.0220   -0.0013 H         1 MOL         0.0493
     14 H7          3.3785    1.4589    0.8413 H         1 MOL         0.0493
     15 H8          3.2667    0.0547    1.9270 H         1 MOL         0.0493
     16 H9          3.0274    1.6718    2.5721 H         1 MOL         0.0493
     17 H10         0.8468    0.4961    2.2868 H         1 MOL         0.0399
@<TRIPOS>BOND
     1    1    2 1
     2    1    6 2
     3    1    7 1
     4    3    5 1
     5    4    5 1
     6    5    7 1
     7    2    8 1
     8    2    9 1
     9    2   10 1
    10    3   11 1
    11    3   12 1
    12    3   13 1
    13    4   14 1
    14    4   15 1
    15    4   16 1
    16    5   17 1
