@<TRIPOS>MOLECULE
[(1S)-1-methylpropyl] nitrate
   17    16     0     0     0
SMALL
USER_CHARGES

@<TRIPOS>ATOM
      1 C1          0.9784   -0.0326   -0.2360 C.3       1 MOL        -0.0951
      2 C2          1.0608    0.9421   -3.9925 C.3       1 MOL        -0.1334
      3 C3          1.4098    0.6794   -1.5114 C.3       1 MOL        -0.0791
      4 C4          0.6395    0.1877   -2.7386 C.3       1 MOL         0.1559
      5 N1         -1.5758   -0.4384   -3.3394 N.pl3     1 MOL         0.3694
      6 O1         -0.9235   -1.1781   -4.0772 O.3       1 MOL        -0.1709
      7 O2         -2.7982   -0.3283   -3.2196 O.2       1 MOL        -0.1709
      8 O3         -0.7550    0.3897   -2.5267 O.3       1 MOL        -0.3711
      9 H1         -0.0930    0.1019   -0.0565 H         1 MOL         0.0448
     10 H2          1.5239    0.3435    0.6351 H         1 MOL         0.0448
     11 H3          1.1759   -1.1062   -0.3184 H         1 MOL         0.0448
     12 H4          0.9007    2.0196   -3.8742 H         1 MOL         0.0594
     13 H5          2.1149    0.7666   -4.2274 H         1 MOL         0.0594
     14 H6          0.4568    0.6272   -4.8504 H         1 MOL         0.0594
     15 H7          2.4847    0.5237   -1.6590 H         1 MOL         0.0586
     16 H8          1.2456    1.7551   -1.3741 H         1 MOL         0.0586
     17 H9          0.8085   -0.8858   -2.8804 H         1 MOL         0.0655
@<TRIPOS>BOND
     1    1    3 1
     2    2    4 1
     3    3    4 1
     4    4    8 1
     5    5    6 1
     6    5    7 2
     7    5    8 1
     8    1    9 1
     9    1   10 1
    10    1   11 1
    11    2   12 1
    12    2   13 1
    13    2   14 1
    14    3   15 1
    15    3   16 1
    16    4   17 1
