@<TRIPOS>MOLECULE
diethoxyphosphinothioylsulfanylmethylsulfanyl-diethoxy-thioxo-$l^{5}-phosphane
   41    40     0     0     0
SMALL
USER_CHARGES

@<TRIPOS>ATOM
      1 C1         -0.2851   -1.4988    4.0934 C.3       1 MOL        -0.0965
      2 C2          4.1716   -3.6662   -0.8513 C.3       1 MOL        -0.0965
      3 C3          0.5909    5.0659   -4.4054 C.3       1 MOL        -0.0965
      4 C4          4.8934    0.6499   -3.0158 C.3       1 MOL        -0.0965
      5 C5         -0.6202   -2.1745    2.7808 C.3       1 MOL         0.1317
      6 C6          2.6614   -3.7704   -0.8598 C.3       1 MOL         0.1317
      7 C7          0.4406    4.2875   -3.1157 C.3       1 MOL         0.1317
      8 C8          3.4550    1.1215   -3.0369 C.3       1 MOL         0.1317
      9 C9          0.8335   -0.3538   -0.7023 C.3       1 MOL         0.2714
     10 O1          0.5824   -2.4441    2.0799 O.3       1 MOL        -0.4743
     11 O2          2.1529   -3.2075    0.3380 O.3       1 MOL        -0.4743
     12 O3          1.5998    3.4959   -2.9164 O.3       1 MOL        -0.4743
     13 O4          3.2024    1.8851   -1.8698 O.3       1 MOL        -0.4743
     14 P1          0.5422   -3.1750    0.6174 P.3       1 MOL         0.8085
     15 P2          1.7285    2.5394   -1.5973 P.3       1 MOL         0.8085
     16 S1         -0.2384   -4.9725    0.7043 S.2       1 MOL        -0.4813
     17 S2          1.7564    3.5693    0.0710 S.2       1 MOL        -0.4813
     18 S3         -0.2874   -1.7696   -0.7467 S.3       1 MOL        -0.2941
     19 S4          0.2955    0.9766   -1.7997 S.3       1 MOL        -0.2941
     20 H1          0.3439   -2.1427    4.7143 H         1 MOL         0.0575
     21 H2          0.2402   -0.5542    3.9182 H         1 MOL         0.0575
     22 H3         -1.1984   -1.2571    4.6471 H         1 MOL         0.0575
     23 H4          4.4904   -2.6217   -0.7937 H         1 MOL         0.0575
     24 H5          4.5914   -4.2114    0.0005 H         1 MOL         0.0575
     25 H6          4.5945   -4.1152   -1.7562 H         1 MOL         0.0575
     26 H7          1.4614    5.7263   -4.3633 H         1 MOL         0.0575
     27 H8          0.7039    4.3856   -5.2559 H         1 MOL         0.0575
     28 H9         -0.3020    5.6701   -4.5976 H         1 MOL         0.0575
     29 H10         5.5822    1.4990   -2.9985 H         1 MOL         0.0575
     30 H11         5.0815    0.0240   -2.1373 H         1 MOL         0.0575
     31 H12         5.1111    0.0362   -3.8963 H         1 MOL         0.0575
     32 H13        -1.2494   -1.5253    2.1647 H         1 MOL         0.0660
     33 H14        -1.1443   -3.1185    2.9578 H         1 MOL         0.0660
     34 H15         2.3493   -4.8174   -0.9175 H         1 MOL         0.0660
     35 H16         2.2437   -3.2244   -1.7110 H         1 MOL         0.0660
     36 H17        -0.4317    3.6290   -3.1644 H         1 MOL         0.0660
     37 H18         0.3287    4.9686   -2.2669 H         1 MOL         0.0660
     38 H19         2.7714    0.2674   -3.0542 H         1 MOL         0.0660
     39 H20         3.2689    1.7473   -3.9148 H         1 MOL         0.0660
     40 H21         1.8285   -0.6853   -1.0112 H         1 MOL         0.1004
     41 H22         0.9049    0.0275    0.3192 H         1 MOL         0.1004
@<TRIPOS>BOND
     1    1    5 1
     2    2    6 1
     3    3    7 1
     4    4    8 1
     5    5   10 1
     6    6   11 1
     7    7   12 1
     8    8   13 1
     9    9   18 1
    10    9   19 1
    11   10   14 1
    12   11   14 1
    13   12   15 1
    14   13   15 1
    15   14   16 2
    16   14   18 1
    17   15   17 2
    18   15   19 1
    19    1   20 1
    20    1   21 1
    21    1   22 1
    22    2   23 1
    23    2   24 1
    24    2   25 1
    25    3   26 1
    26    3   27 1
    27    3   28 1
    28    4   29 1
    29    4   30 1
    30    4   31 1
    31    5   32 1
    32    5   33 1
    33    6   34 1
    34    6   35 1
    35    7   36 1
    36    7   37 1
    37    8   38 1
    38    8   39 1
    39    9   40 1
    40    9   41 1
