@<TRIPOS>MOLECULE
3-phenylpropan-1-ol
   22    22     0     0     0
SMALL
USER_CHARGES

@<TRIPOS>ATOM
      1 C1          1.8851   -1.0363   -0.1124 C.ar      1 MOL        -0.1316
      2 C2          0.8066   -0.4630    0.5610 C.ar      1 MOL        -0.1282
      3 C3          2.9210   -1.6309    0.6081 C.ar      1 MOL        -0.1282
      4 C4          0.7638   -0.4841    1.9551 C.ar      1 MOL        -0.1261
      5 C5          2.8783   -1.6520    2.0022 C.ar      1 MOL        -0.1261
      6 C6          1.7997   -1.0786    2.6757 C.ar      1 MOL        -0.0783
      7 C7          1.7548   -1.1014    4.1663 C.3       1 MOL        -0.0348
      8 C8          2.4239    0.1347    4.7831 C.3       1 MOL        -0.0816
      9 C9          2.4230    0.0892    6.3048 C.3       1 MOL         0.1319
     10 O1          3.0424    1.2681    6.8000 O.3       1 MOL        -0.6017
     11 H1          1.9176   -1.0210   -1.1980 H         1 MOL         0.1302
     12 H2         -0.0006   -0.0010    0.0001 H         1 MOL         0.1310
     13 H3          3.7604   -2.0783    0.0841 H         1 MOL         0.1310
     14 H4         -0.0804   -0.0348    2.4713 H         1 MOL         0.1304
     15 H5          3.6899   -2.1173    2.5553 H         1 MOL         0.1304
     16 H6          2.2475   -2.0089    4.5547 H         1 MOL         0.0465
     17 H7          0.7117   -1.1607    4.5211 H         1 MOL         0.0465
     18 H8          1.9166    1.0486    4.4473 H         1 MOL         0.0600
     19 H9          3.4573    0.2261    4.4234 H         1 MOL         0.0600
     20 H10         1.4007    0.0436    6.6937 H         1 MOL         0.0199
     21 H11         2.9828   -0.7779    6.6698 H         1 MOL         0.0199
     22 H12         3.0257    1.2081    7.7690 H         1 MOL         0.3988
@<TRIPOS>BOND
     1    1    2 ar
     2    1    3 ar
     3    2    4 ar
     4    3    5 ar
     5    4    6 ar
     6    5    6 ar
     7    6    7 1
     8    7    8 1
     9    8    9 1
    10    9   10 1
    11    1   11 1
    12    2   12 1
    13    3   13 1
    14    4   14 1
    15    5   15 1
    16    7   16 1
    17    7   17 1
    18    8   18 1
    19    8   19 1
    20    9   20 1
    21    9   21 1
    22   10   22 1
