@<TRIPOS>MOLECULE
indane
   19    20     0     0     0
SMALL
USER_CHARGES

@<TRIPOS>ATOM
      1 C1         -0.9111   -1.1190    1.6051 C.ar      1 MOL        -0.1316
      2 C2         -0.1942   -0.9896    0.4048 C.ar      1 MOL        -0.1316
      3 C3         -1.1666   -2.3794    2.1497 C.ar      1 MOL        -0.1180
      4 C4          0.2780   -2.1186   -0.2681 C.ar      1 MOL        -0.1180
      5 C5         -0.7058   -3.4937    1.4690 C.ar      1 MOL        -0.0874
      6 C6          0.0095   -3.3646    0.2726 C.ar      1 MOL        -0.0874
      7 C7         -0.8216   -4.9308    1.8681 C.3       1 MOL        -0.0366
      8 C8          0.4394   -4.7033   -0.2384 C.3       1 MOL        -0.0366
      9 C9         -0.5014   -5.6348    0.5408 C.3       1 MOL        -0.0807
     10 H1         -1.2646   -0.2284    2.1177 H         1 MOL         0.1291
     11 H2         -0.0007   -0.0001   -0.0006 H         1 MOL         0.1291
     12 H3         -1.7100   -2.4763    3.0833 H         1 MOL         0.1323
     13 H4          0.8406   -2.0155   -1.1897 H         1 MOL         0.1323
     14 H5         -0.0763   -5.1709    2.6332 H         1 MOL         0.0537
     15 H6         -1.8225   -5.1884    2.2254 H         1 MOL         0.0537
     16 H7          0.2979   -4.8057   -1.3178 H         1 MOL         0.0537
     17 H8          1.4860   -4.8884    0.0246 H         1 MOL         0.0537
     18 H9         -0.0739   -6.6313    0.6891 H         1 MOL         0.0451
     19 H10        -1.4315   -5.7645   -0.0301 H         1 MOL         0.0451
@<TRIPOS>BOND
     1    1    2 ar
     2    1    3 ar
     3    2    4 ar
     4    3    5 ar
     5    4    6 ar
     6    5    6 ar
     7    5    7 1
     8    6    8 1
     9    7    9 1
    10    8    9 1
    11    1   10 1
    12    2   11 1
    13    3   12 1
    14    4   13 1
    15    7   14 1
    16    7   15 1
    17    8   16 1
    18    8   17 1
    19    9   18 1
    20    9   19 1
