@<TRIPOS>MOLECULE
butan-1-amine
   16    15     0     0     0
SMALL
USER_CHARGES

@<TRIPOS>ATOM
      1 C1         -0.5555    0.9360   -0.1153 C.3       1 MOL        -0.0931
      2 C2         -1.0392    1.4313    1.2387 C.3       1 MOL        -0.0793
      3 C3         -1.8134    2.7450    1.1091 C.3       1 MOL        -0.0835
      4 C4         -2.3629    3.2356    2.4445 C.3       1 MOL         0.1593
      5 N1         -3.1108    4.4553    2.3147 N.3       1 MOL        -0.9164
      6 H1          0.0878    1.6790   -0.5976 H         1 MOL         0.0334
      7 H2          0.0207    0.0129    0.0026 H         1 MOL         0.0334
      8 H3         -1.3989    0.7271   -0.7812 H         1 MOL         0.0334
      9 H4         -1.6789    0.6659    1.6933 H         1 MOL         0.0391
     10 H5         -0.1737    1.5646    1.8974 H         1 MOL         0.0391
     11 H6         -1.1638    3.5127    0.6707 H         1 MOL         0.0468
     12 H7         -2.6533    2.6000    0.4188 H         1 MOL         0.0468
     13 H8         -1.5580    3.4105    3.1654 H         1 MOL         0.0227
     14 H9         -3.0418    2.4880    2.8669 H         1 MOL         0.0227
     15 H10        -2.7787    5.1727    1.6889 H         1 MOL         0.3480
     16 H11        -3.8317    4.6651    2.9878 H         1 MOL         0.3480
@<TRIPOS>BOND
     1    1    2 1
     2    2    3 1
     3    3    4 1
     4    4    5 1
     5    1    6 1
     6    1    7 1
     7    1    8 1
     8    2    9 1
     9    2   10 1
    10    3   11 1
    11    3   12 1
    12    4   13 1
    13    4   14 1
    14    5   15 1
    15    5   16 1
