@<TRIPOS>MOLECULE
2-methylprop-1-ene
   12    11     0     0     0
SMALL
USER_CHARGES

@<TRIPOS>ATOM
      1 C1          0.4692   -0.6874    0.6960 C.2       1 MOL        -0.2323
      2 C2          1.1097   -1.7854    0.2679 C.2       1 MOL        -0.1099
      3 C3          1.2141   -2.1252   -1.1893 C.3       1 MOL        -0.0636
      4 C4          1.7622   -2.7443    1.2190 C.3       1 MOL        -0.0636
      5 H1          0.3993   -0.4505    1.7524 H         1 MOL         0.1112
      6 H2          0.0000    0.0000    0.0000 H         1 MOL         0.1112
      7 H3          2.1151   -1.6768   -1.6201 H         1 MOL         0.0411
      8 H4          1.2676   -3.2104   -1.3233 H         1 MOL         0.0411
      9 H5          0.3543   -1.7603   -1.7611 H         1 MOL         0.0411
     10 H6          1.0527   -3.5214    1.5214 H         1 MOL         0.0411
     11 H7          2.6226   -3.2253    0.7424 H         1 MOL         0.0411
     12 H8          2.1190   -2.2466    2.1271 H         1 MOL         0.0411
@<TRIPOS>BOND
     1    1    2 2
     2    2    3 1
     3    2    4 1
     4    1    5 1
     5    1    6 1
     6    3    7 1
     7    3    8 1
     8    3    9 1
     9    4   10 1
    10    4   11 1
    11    4   12 1
