@<TRIPOS>MOLECULE
3-methylpyridine
   14    14     0     0     0
SMALL
USER_CHARGES

@<TRIPOS>ATOM
      1 C1          0.2265   -0.4197    0.9733 C.ar      1 MOL        -0.2423
      2 C2          1.3879   -0.0684    1.6522 C.ar      1 MOL        -0.0981
      3 C3         -0.6317   -1.3224    1.5803 C.ar      1 MOL         0.3877
      4 C4          0.7299   -1.5161    3.4206 C.ar      1 MOL         0.3936
      5 C5          1.6520   -0.6227    2.8997 C.ar      1 MOL        -0.1907
      6 C6          2.8852   -0.2665    3.6509 C.3       1 MOL        -0.0497
      7 N1         -0.4092   -1.8816    2.7908 N.ar      1 MOL        -0.6630
      8 H1         -0.0000   -0.0001   -0.0002 H         1 MOL         0.1430
      9 H2          2.0808    0.6373    1.2020 H         1 MOL         0.1354
     10 H3         -1.5507   -1.6289    1.0916 H         1 MOL         0.0214
     11 H4          0.8820   -1.9806    4.3900 H         1 MOL         0.0209
     12 H5          2.7060    0.6035    4.2970 H         1 MOL         0.0473
     13 H6          3.2272   -1.0993    4.2816 H         1 MOL         0.0473
     14 H7          3.7151   -0.0258    2.9713 H         1 MOL         0.0473
@<TRIPOS>BOND
     1    1    2 ar
     2    1    3 ar
     3    2    5 ar
     4    3    7 ar
     5    4    5 ar
     6    4    7 ar
     7    5    6 1
     8    1    8 1
     9    2    9 1
    10    3   10 1
    11    4   11 1
    12    6   12 1
    13    6   13 1
    14    6   14 1
