@<TRIPOS>MOLECULE
S-propyl N-butyl-N-ethyl-carbamothioate
   34    33     0     0     0
SMALL
USER_CHARGES

@<TRIPOS>ATOM
      1 C1         -0.8334   -1.5092    2.5449 C.2       1 MOL         0.6908
      2 C2         -5.2388    2.2258    2.7273 C.3       1 MOL        -0.0932
      3 C3         -0.4315   -4.2294    7.0389 C.3       1 MOL        -0.0933
      4 C4          0.4242   -0.0469   -0.1406 C.3       1 MOL        -0.1145
      5 C5         -3.7183    2.2066    2.7440 C.3       1 MOL        -0.0777
      6 C6         -0.8554   -2.8894    6.4555 C.3       1 MOL        -0.0795
      7 C7         -3.1710    0.8666    2.2470 C.3       1 MOL        -0.1035
      8 C8         -0.9439   -0.4951    0.2466 C.3       1 MOL         0.0918
      9 C9         -1.6470    0.8388    2.1958 C.3       1 MOL         0.0862
     10 C10        -0.6360   -2.8535    4.9472 C.3       1 MOL        -0.0066
     11 N1         -1.1302   -0.4301    1.6971 N.am      1 MOL        -0.4609
     12 O1         -0.3971   -2.5896    2.1536 O.2       1 MOL        -0.5984
     13 S1         -1.1484   -1.2590    4.2710 S.3       1 MOL        -0.2816
     14 H1         -5.6480    1.4242    3.3506 H         1 MOL         0.0351
     15 H2         -5.6100    3.1801    3.1141 H         1 MOL         0.0351
     16 H3         -5.6220    2.0999    1.7096 H         1 MOL         0.0351
     17 H4         -0.9857   -5.0520    6.5755 H         1 MOL         0.0367
     18 H5          0.6358   -4.3981    6.8645 H         1 MOL         0.0367
     19 H6         -0.6084   -4.2606    8.1189 H         1 MOL         0.0367
     20 H7          0.5982    0.9894    0.1689 H         1 MOL         0.0425
     21 H8          1.1877   -0.6910    0.3090 H         1 MOL         0.0425
     22 H9          0.5372   -0.0976   -1.2302 H         1 MOL         0.0425
     23 H10        -3.3421    3.0194    2.1119 H         1 MOL         0.0403
     24 H11        -3.3724    2.4022    3.7652 H         1 MOL         0.0403
     25 H12        -0.2791   -2.0947    6.9446 H         1 MOL         0.0497
     26 H13        -1.9131   -2.7216    6.6919 H         1 MOL         0.0497
     27 H14        -3.5353    0.0584    2.8932 H         1 MOL         0.0503
     28 H15        -3.5571    0.6730    1.2389 H         1 MOL         0.0503
     29 H16        -1.1109   -1.5304   -0.0654 H         1 MOL         0.0581
     30 H17        -1.7055    0.1395   -0.2160 H         1 MOL         0.0581
     31 H18        -1.2129    1.0124    3.1855 H         1 MOL         0.0613
     32 H19        -1.2812    1.6198    1.5217 H         1 MOL         0.0613
     33 H20         0.4206   -3.0086    4.7066 H         1 MOL         0.0890
     34 H21        -1.2145   -3.6411    4.4538 H         1 MOL         0.0890
@<TRIPOS>BOND
     1    1   11 am
     2    1   12 2
     3    1   13 1
     4    2    5 1
     5    3    6 1
     6    4    8 1
     7    5    7 1
     8    6   10 1
     9    7    9 1
    10    8   11 1
    11    9   11 1
    12   10   13 1
    13    2   14 1
    14    2   15 1
    15    2   16 1
    16    3   17 1
    17    3   18 1
    18    3   19 1
    19    4   20 1
    20    4   21 1
    21    4   22 1
    22    5   23 1
    23    5   24 1
    24    6   25 1
    25    6   26 1
    26    7   27 1
    27    7   28 1
    28    8   29 1
    29    8   30 1
    30    9   31 1
    31    9   32 1
    32   10   33 1
    33   10   34 1
