@<TRIPOS>MOLECULE
N,N-dimethylaniline
   20    20     0     0     0
SMALL
USER_CHARGES

@<TRIPOS>ATOM
      1 C1          1.8851   -1.0363   -0.1124 C.ar      1 MOL        -0.1343
      2 C2          0.8066   -0.4630    0.5610 C.ar      1 MOL        -0.1291
      3 C3          2.9210   -1.6309    0.6081 C.ar      1 MOL        -0.1291
      4 C4          0.7638   -0.4841    1.9551 C.ar      1 MOL        -0.1371
      5 C5          2.8783   -1.6520    2.0022 C.ar      1 MOL        -0.1371
      6 C6          1.7997   -1.0786    2.6757 C.ar      1 MOL         0.1597
      7 C7          0.6406   -0.5075    4.7948 C.3       1 MOL         0.2445
      8 C8          2.8216   -1.7280    4.8423 C.3       1 MOL         0.2445
      9 N1          1.7568   -1.1003    4.0852 N.pl3     1 MOL        -0.7801
     10 H1          1.9184   -1.0196   -1.1980 H         1 MOL         0.1300
     11 H2          0.0003   -0.0001   -0.0001 H         1 MOL         0.1303
     12 H3          3.7609   -2.0773    0.0835 H         1 MOL         0.1303
     13 H4         -0.0810   -0.0346    2.4703 H         1 MOL         0.1360
     14 H5          3.6911   -2.1183    2.5532 H         1 MOL         0.1360
     15 H6          0.7793   -0.6187    5.8733 H         1 MOL         0.0226
     16 H7         -0.2933   -0.9982    4.5076 H         1 MOL         0.0226
     17 H8          0.5644    0.5570    4.5576 H         1 MOL         0.0226
     18 H9          2.6186   -1.6480    5.9134 H         1 MOL         0.0226
     19 H10         3.7763   -1.2402    4.6277 H         1 MOL         0.0226
     20 H11         2.9010   -2.7857    4.5772 H         1 MOL         0.0226
@<TRIPOS>BOND
     1    1    2 ar
     2    1    3 ar
     3    2    4 ar
     4    3    5 ar
     5    4    6 ar
     6    5    6 ar
     7    6    9 1
     8    7    9 1
     9    8    9 1
    10    1   10 1
    11    2   11 1
    12    3   12 1
    13    4   13 1
    14    5   14 1
    15    7   15 1
    16    7   16 1
    17    7   17 1
    18    8   18 1
    19    8   19 1
    20    8   20 1
