@<TRIPOS>MOLECULE
(3aR,7aR)-2-(trichloromethylsulfanyl)-3a,4,7,7a-tetrahydroisoindole-1,3-dione
   24    25     0     0     0
SMALL
USER_CHARGES

@<TRIPOS>ATOM
      1 C1         -1.0013    1.5780   -2.2741 C.2       1 MOL        -0.1699
      2 C2         -1.8323    1.9213   -1.2709 C.2       1 MOL        -0.1699
      3 C3          1.0672   -1.0441   -0.2993 C.2       1 MOL         0.7060
      4 C4         -0.0979   -0.1527    1.5119 C.2       1 MOL         0.7060
      5 C5          0.1163    0.5698   -2.1260 C.3       1 MOL        -0.0340
      6 C6         -1.7044    1.3903    0.1393 C.3       1 MOL        -0.0340
      7 C7         -0.0708   -0.2188   -0.8422 C.3       1 MOL        -0.1404
      8 C8         -0.3471    0.7345    0.3194 C.3       1 MOL        -0.1404
      9 C9          3.1330   -1.0591    2.5234 C.3       1 MOL         0.2324
     10 N1          0.8595   -1.0619    1.0756 N.am      1 MOL        -0.4681
     11 O1          1.9144   -1.6142   -0.9673 O.2       1 MOL        -0.5251
     12 O2         -0.5954   -0.0159    2.6176 O.2       1 MOL        -0.5251
     13 S1          1.6912   -2.0949    2.1107 S.3       1 MOL         0.1011
     14 Cl1         4.1950   -1.9711    3.6462 Cl        1 MOL        -0.0956
     15 Cl2         4.0806   -0.6602    1.0607 Cl        1 MOL        -0.0956
     16 Cl3         2.6287    0.4512    3.3367 Cl        1 MOL        -0.0956
     17 H1         -1.1399    2.0278   -3.2533 H         1 MOL         0.1344
     18 H2         -2.6316    2.6306   -1.4654 H         1 MOL         0.1344
     19 H3          0.1088   -0.1154   -2.9812 H         1 MOL         0.0707
     20 H4          1.0821    1.0879   -2.1397 H         1 MOL         0.0707
     21 H5         -1.8106    2.2150    0.8532 H         1 MOL         0.0707
     22 H6         -2.5189    0.6851    0.3410 H         1 MOL         0.0707
     23 H7         -0.9133   -0.9173   -0.9693 H         1 MOL         0.0983
     24 H8          0.4276    1.5169    0.3616 H         1 MOL         0.0983
@<TRIPOS>BOND
     1    1    2 2
     2    1    5 1
     3    2    6 1
     4    3    7 1
     5    3   10 am
     6    3   11 2
     7    4    8 1
     8    4   10 am
     9    4   12 2
    10    5    7 1
    11    6    8 1
    12    7    8 1
    13    9   13 1
    14    9   14 1
    15    9   15 1
    16    9   16 1
    17   10   13 1
    18    1   17 1
    19    2   18 1
    20    5   19 1
    21    5   20 1
    22    6   21 1
    23    6   22 1
    24    7   23 1
    25    8   24 1
