@<TRIPOS>MOLECULE
methyl 2-cyanoacetate
   12    11     0     0     0
SMALL
USER_CHARGES

@<TRIPOS>ATOM
      1 C1         -1.9983   -1.0694    4.5015 C.1       1 MOL         0.2094
      2 C2         -1.4583   -0.3259    2.2102 C.2       1 MOL         0.6335
      3 C3         -0.9283    0.5693    0.0840 C.3       1 MOL         0.1257
      4 C4         -1.7831    0.0874    3.6246 C.3       1 MOL        -0.0666
      5 N1         -2.1697   -1.9814    5.1982 N.1       1 MOL        -0.3368
      6 O1         -1.3922   -1.4787    1.8052 O.2       1 MOL        -0.5137
      7 O2         -1.2500    0.7975    1.4599 O.3       1 MOL        -0.4391
      8 H1         -0.7828    1.5275   -0.4207 H         1 MOL         0.0556
      9 H2         -1.7391    0.0133   -0.3934 H         1 MOL         0.0556
     10 H3         -0.0061   -0.0138    0.0265 H         1 MOL         0.0556
     11 H4         -2.6877    0.7043    3.6047 H         1 MOL         0.1103
     12 H5         -0.9516    0.6884    4.0077 H         1 MOL         0.1103
@<TRIPOS>BOND
     1    1    4 1
     2    1    5 3
     3    2    4 1
     4    2    6 2
     5    2    7 1
     6    3    7 1
     7    3    8 1
     8    3    9 1
     9    3   10 1
    10    4   11 1
    11    4   12 1
