@<TRIPOS>MOLECULE
N,N-diethylethanamine
   22    21     0     0     0
SMALL
USER_CHARGES

@<TRIPOS>ATOM
      1 C1         -1.0862    0.8639    1.5853 C.3       1 MOL        -0.0948
      2 C2          2.9528    0.4204    2.7846 C.3       1 MOL        -0.0948
      3 C3          0.8214   -2.8889    1.3141 C.3       1 MOL        -0.0948
      4 C4         -0.2717   -0.2549    1.0309 C.3       1 MOL         0.1656
      5 C5          1.7513    0.6707    1.9381 C.3       1 MOL         0.1656
      6 C6          1.6567   -1.6543    1.3398 C.3       1 MOL         0.1656
      7 N1          0.9013   -0.5170    1.8640 N.3       1 MOL        -0.7281
      8 H1         -1.4432    0.6253    2.5930 H         1 MOL         0.0380
      9 H2         -0.5040    1.7912    1.6187 H         1 MOL         0.0380
     10 H3         -1.9621    1.0366    0.9486 H         1 MOL         0.0380
     11 H4          2.6622    0.1576    3.8075 H         1 MOL         0.0380
     12 H5          3.5649   -0.3852    2.3648 H         1 MOL         0.0380
     13 H6          3.5698    1.3258    2.8306 H         1 MOL         0.0380
     14 H7          0.4832   -3.1530    2.3220 H         1 MOL         0.0380
     15 H8         -0.0502   -2.7569    0.6638 H         1 MOL         0.0380
     16 H9          1.4105   -3.7278    0.9247 H         1 MOL         0.0380
     17 H10         0.0815   -0.0101    0.0246 H         1 MOL         0.0289
     18 H11        -0.8594   -1.1764    0.9835 H         1 MOL         0.0289
     19 H12         2.0486    0.9326    0.9182 H         1 MOL         0.0289
     20 H13         1.1495    1.4861    2.3501 H         1 MOL         0.0289
     21 H14         1.9909   -1.3963    0.3304 H         1 MOL         0.0289
     22 H15         2.5349   -1.7933    1.9771 H         1 MOL         0.0289
@<TRIPOS>BOND
     1    1    4 1
     2    2    5 1
     3    3    6 1
     4    4    7 1
     5    5    7 1
     6    6    7 1
     7    1    8 1
     8    1    9 1
     9    1   10 1
    10    2   11 1
    11    2   12 1
    12    2   13 1
    13    3   14 1
    14    3   15 1
    15    3   16 1
    16    4   17 1
    17    4   18 1
    18    5   19 1
    19    5   20 1
    20    6   21 1
    21    6   22 1
