@<TRIPOS>MOLECULE
pentan-3-ol
   18    17     0     0     0
SMALL
USER_CHARGES

@<TRIPOS>ATOM
      1 C1         -0.2299    0.9454    0.2524 C.3       1 MOL        -0.0902
      2 C2         -2.7412   -0.2455    4.5088 C.3       1 MOL        -0.0902
      3 C3         -0.4534    1.2393    1.7303 C.3       1 MOL        -0.1122
      4 C4         -1.6986    0.6411    3.8403 C.3       1 MOL        -0.1122
      5 C5         -1.5325    0.3415    2.3459 C.3       1 MOL         0.1355
      6 O1         -1.1462   -1.0186    2.1649 O.3       1 MOL        -0.5944
      7 H1         -1.1624    1.0829   -0.3041 H         1 MOL         0.0376
      8 H2          0.5203    1.6153   -0.1791 H         1 MOL         0.0376
      9 H3          0.1039   -0.0866    0.1050 H         1 MOL         0.0376
     10 H4         -3.7105   -0.1232    4.0148 H         1 MOL         0.0376
     11 H5         -2.4584   -1.3009    4.4435 H         1 MOL         0.0376
     12 H6         -2.8711    0.0138    5.5637 H         1 MOL         0.0376
     13 H7          0.4981    1.0921    2.2559 H         1 MOL         0.0419
     14 H8         -0.7352    2.2926    1.8430 H         1 MOL         0.0419
     15 H9         -0.7427    0.4948    4.3577 H         1 MOL         0.0419
     16 H10        -1.9917    1.6886    3.9765 H         1 MOL         0.0419
     17 H11        -2.4821    0.4995    1.8209 H         1 MOL         0.0757
     18 H12        -0.2958   -1.1267    2.6182 H         1 MOL         0.3946
@<TRIPOS>BOND
     1    1    3 1
     2    2    4 1
     3    3    5 1
     4    4    5 1
     5    5    6 1
     6    1    7 1
     7    1    8 1
     8    1    9 1
     9    2   10 1
    10    2   11 1
    11    2   12 1
    12    3   13 1
    13    3   14 1
    14    4   15 1
    15    4   16 1
    16    5   17 1
    17    6   18 1
