@<TRIPOS>MOLECULE
nonan-5-one
   28    27     0     0     0
SMALL
USER_CHARGES

@<TRIPOS>ATOM
      1 C1         -0.2847   -0.4304   -0.2023 C.2       1 MOL         0.5629
      2 C2         -1.6725    1.5182    4.2509 C.3       1 MOL        -0.0921
      3 C3          0.9860   -2.6635   -4.5809 C.3       1 MOL        -0.0921
      4 C4         -1.1133    0.6187    0.5229 C.3       1 MOL        -0.1819
      5 C5         -0.4341   -0.4503   -1.7169 C.3       1 MOL        -0.1819
      6 C6         -1.8135    1.5991    2.7393 C.3       1 MOL        -0.0793
      7 C7          0.1886   -1.5481   -3.9231 C.3       1 MOL        -0.0793
      8 C8         -0.9399    0.5594    2.0388 C.3       1 MOL        -0.0749
      9 C9          0.3572   -1.5634   -2.4018 C.3       1 MOL        -0.0749
     10 O1          0.4345   -1.2274    0.3977 O.2       1 MOL        -0.5292
     11 H1         -1.9468    0.5193    4.6044 H         1 MOL         0.0345
     12 H2         -2.3252    2.2447    4.7456 H         1 MOL         0.0345
     13 H3         -0.6410    1.7164    4.5597 H         1 MOL         0.0345
     14 H4          2.0483   -2.5647   -4.3364 H         1 MOL         0.0345
     15 H5          0.6472   -3.6448   -4.2338 H         1 MOL         0.0345
     16 H6          0.8838   -2.6294   -5.6702 H         1 MOL         0.0345
     17 H7         -0.8081    1.6035    0.1520 H         1 MOL         0.0630
     18 H8         -2.1648    0.4569    0.2606 H         1 MOL         0.0630
     19 H9         -0.1289    0.5245   -2.1128 H         1 MOL         0.0630
     20 H10        -1.5007   -0.5860   -1.9291 H         1 MOL         0.0630
     21 H11        -1.5346    2.6054    2.4057 H         1 MOL         0.0360
     22 H12        -2.8645    1.4465    2.4675 H         1 MOL         0.0360
     23 H13        -0.8706   -1.6655   -4.1803 H         1 MOL         0.0360
     24 H14         0.5158   -0.5871   -4.3348 H         1 MOL         0.0360
     25 H15         0.1133    0.7275    2.2967 H         1 MOL         0.0549
     26 H16        -1.1968   -0.4438    2.4011 H         1 MOL         0.0549
     27 H17         0.0027   -2.5275   -2.0167 H         1 MOL         0.0549
     28 H18         1.4204   -1.4893   -2.1434 H         1 MOL         0.0549
@<TRIPOS>BOND
     1    1    4 1
     2    1    5 1
     3    1   10 2
     4    2    6 1
     5    3    7 1
     6    4    8 1
     7    5    9 1
     8    6    8 1
     9    7    9 1
    10    2   11 1
    11    2   12 1
    12    2   13 1
    13    3   14 1
    14    3   15 1
    15    3   16 1
    16    4   17 1
    17    4   18 1
    18    5   19 1
    19    5   20 1
    20    6   21 1
    21    6   22 1
    22    7   23 1
    23    7   24 1
    24    8   25 1
    25    8   26 1
    26    9   27 1
    27    9   28 1
