@<TRIPOS>MOLECULE
methyl 4-hydroxybenzoate
   19    19     0     0     0
SMALL
USER_CHARGES

@<TRIPOS>ATOM
      1 C1          1.8851   -1.0363   -0.1124 C.ar      1 MOL        -0.0515
      2 C2          2.8783   -1.6520    2.0022 C.ar      1 MOL        -0.0515
      3 C3          0.8066   -0.4630    0.5610 C.ar      1 MOL        -0.1902
      4 C4          1.7997   -1.0786    2.6757 C.ar      1 MOL        -0.1902
      5 C5          2.9210   -1.6309    0.6081 C.ar      1 MOL        -0.1465
      6 C6          0.7638   -0.4841    1.9551 C.ar      1 MOL         0.1443
      7 C7          4.0457   -2.2285   -0.0938 C.2       1 MOL         0.6480
      8 C8          6.1157   -3.3767    0.2045 C.3       1 MOL         0.1241
      9 O1          4.1678   -2.2560   -1.3257 O.2       1 MOL        -0.5264
     10 O2         -0.2886    0.0750    2.6125 O.3       1 MOL        -0.4919
     11 O3          4.9583   -2.7585    0.7770 O.3       1 MOL        -0.4345
     12 H1          1.9078   -1.0136   -1.1990 H         1 MOL         0.1458
     13 H2          3.6806   -2.1126    2.5729 H         1 MOL         0.1458
     14 H3          0.0026   -0.0015   -0.0059 H         1 MOL         0.1492
     15 H4          1.7717   -1.0984    3.7617 H         1 MOL         0.1492
     16 H5          6.7591   -3.7562    1.0021 H         1 MOL         0.0509
     17 H6          6.6590   -2.6458   -0.3997 H         1 MOL         0.0509
     18 H7          5.7978   -4.2072   -0.4303 H         1 MOL         0.0509
     19 H8         -0.9231    0.4452    1.9782 H         1 MOL         0.4235
@<TRIPOS>BOND
     1    1    3 ar
     2    1    5 ar
     3    2    4 ar
     4    2    5 ar
     5    3    6 ar
     6    4    6 ar
     7    5    7 1
     8    6   10 1
     9    7    9 2
    10    7   11 1
    11    8   11 1
    12    1   12 1
    13    2   13 1
    14    3   14 1
    15    4   15 1
    16    8   16 1
    17    8   17 1
    18    8   18 1
    19   10   19 1
