@<TRIPOS>MOLECULE
1-amino-4-hydroxy-anthracene-9,10-dione
   27    29     0     0     0
SMALL
USER_CHARGES

@<TRIPOS>ATOM
      1 C1          1.2904   -1.6865   -0.3516 C.ar      1 MOL        -0.1160
      2 C2          0.9563   -0.4630    0.2256 C.ar      1 MOL        -0.1211
      3 C3          2.5179   -2.2839   -0.0640 C.ar      1 MOL        -0.0882
      4 C4          1.8484    0.1684    1.0928 C.ar      1 MOL        -0.0838
      5 C5          7.7766   -1.5826    3.1822 C.ar      1 MOL        -0.1588
      6 C6          7.4425   -0.3591    3.7594 C.ar      1 MOL        -0.1000
      7 C7          3.4160   -1.6538    0.8057 C.ar      1 MOL        -0.1223
      8 C8          3.0812   -0.4277    1.3842 C.ar      1 MOL        -0.1280
      9 C9          5.6516   -1.6180    2.0237 C.ar      1 MOL        -0.1967
     10 C10         5.3168   -0.3919    2.6022 C.ar      1 MOL        -0.1802
     11 C11         6.8845   -2.2140    2.3149 C.ar      1 MOL         0.2112
     12 C12         6.2150    0.2382    3.4720 C.ar      1 MOL         0.1532
     13 C13         4.7134   -2.2938    1.1043 C.2       1 MOL         0.6013
     14 C14         4.0194    0.2481    2.3036 C.2       1 MOL         0.6007
     15 N1          7.2931   -3.4522    1.7683 N.pl3     1 MOL        -0.8462
     16 O1          4.9722   -3.3687    0.5779 O.2       1 MOL        -0.5735
     17 O2          3.7024    1.3229    2.7975 O.2       1 MOL        -0.5725
     18 O3          5.9497    1.4347    4.0695 O.3       1 MOL        -0.5078
     19 H1          0.5943   -2.1752   -1.0273 H         1 MOL         0.1408
     20 H2          0.0003    0.0004   -0.0008 H         1 MOL         0.1404
     21 H3          2.7524   -3.2380   -0.5285 H         1 MOL         0.1622
     22 H4          1.5631    1.1221    1.5285 H         1 MOL         0.1609
     23 H5          8.7374   -2.0343    3.4168 H         1 MOL         0.1419
     24 H6          8.1448    0.1239    4.4339 H         1 MOL         0.1600
     25 H7          8.2051   -3.7982    1.9808 H         1 MOL         0.4309
     26 H8          6.7004   -3.9090    1.1076 H         1 MOL         0.4309
     27 H9          5.0752    1.7559    3.8002 H         1 MOL         0.4607
@<TRIPOS>BOND
     1    1    2 ar
     2    1    3 ar
     3    2    4 ar
     4    3    7 ar
     5    4    8 ar
     6    5    6 ar
     7    5   11 ar
     8    6   12 ar
     9    7    8 ar
    10    7   13 1
    11    8   14 1
    12    9   10 ar
    13    9   11 ar
    14    9   13 1
    15   10   12 ar
    16   10   14 1
    17   11   15 1
    18   12   18 1
    19   13   16 2
    20   14   17 2
    21    1   19 1
    22    2   20 1
    23    3   21 1
    24    4   22 1
    25    5   23 1
    26    6   24 1
    27   15   25 1
    28   15   26 1
    29   18   27 1
