@<TRIPOS>MOLECULE
butylbenzene
   24    24     0     0     0
SMALL
USER_CHARGES

@<TRIPOS>ATOM
      1 C1          2.2450    2.5509   -6.6784 C.ar      1 MOL        -0.1332
      2 C2          2.5149    3.5014   -5.6938 C.ar      1 MOL        -0.1287
      3 C3          1.1764    1.6681   -6.5213 C.ar      1 MOL        -0.1287
      4 C4          1.7165    3.5690   -4.5521 C.ar      1 MOL        -0.1275
      5 C5          0.3780    1.7357   -5.3796 C.ar      1 MOL        -0.1275
      6 C6          0.6480    2.6862   -4.3949 C.ar      1 MOL        -0.0767
      7 C7         -0.0658    0.9898    0.2887 C.3       1 MOL        -0.0922
      8 C8         -0.2155    2.7586   -3.1608 C.3       1 MOL        -0.0361
      9 C9         -0.5747    1.9106   -0.8088 C.3       1 MOL        -0.0802
     10 C10         0.3242    1.8603   -2.0442 C.3       1 MOL        -0.0760
     11 H1          2.8660    2.4993   -7.5679 H         1 MOL         0.1295
     12 H2          3.3462    4.1895   -5.8165 H         1 MOL         0.1302
     13 H3          0.9653    0.9288   -7.2881 H         1 MOL         0.1302
     14 H4          1.9344    4.3126   -3.7900 H         1 MOL         0.1303
     15 H5         -0.4523    1.0438   -5.2656 H         1 MOL         0.1303
     16 H6         -0.0066   -0.0450   -0.0635 H         1 MOL         0.0333
     17 H7         -0.7251    1.0187    1.1621 H         1 MOL         0.0333
     18 H8          0.9350    1.2975    0.6080 H         1 MOL         0.0333
     19 H9         -0.2719    3.7966   -2.8084 H         1 MOL         0.0466
     20 H10        -1.2435    2.4649   -3.4098 H         1 MOL         0.0466
     21 H11        -0.6219    2.9361   -0.4242 H         1 MOL         0.0378
     22 H12        -1.5959    1.6175   -1.0789 H         1 MOL         0.0378
     23 H13         1.3399    2.1741   -1.7716 H         1 MOL         0.0438
     24 H14         0.3992    0.8255   -2.4017 H         1 MOL         0.0438
@<TRIPOS>BOND
     1    1    2 ar
     2    1    3 ar
     3    2    4 ar
     4    3    5 ar
     5    4    6 ar
     6    5    6 ar
     7    6    8 1
     8    7    9 1
     9    8   10 1
    10    9   10 1
    11    1   11 1
    12    2   12 1
    13    3   13 1
    14    4   14 1
    15    5   15 1
    16    7   16 1
    17    7   17 1
    18    7   18 1
    19    8   19 1
    20    8   20 1
    21    9   21 1
    22    9   22 1
    23   10   23 1
    24   10   24 1
