@<TRIPOS>MOLECULE
propyl 4-hydroxybenzoate
   25    25     0     0     0
SMALL
USER_CHARGES

@<TRIPOS>ATOM
      1 C1          3.0271   -0.3390    1.1236 C.ar      1 MOL        -0.0520
      2 C2          1.7361   -2.3497    0.7662 C.ar      1 MOL        -0.0520
      3 C3          1.9483    0.2339    1.7970 C.ar      1 MOL        -0.1901
      4 C4          0.6573   -1.7768    1.4396 C.ar      1 MOL        -0.1901
      5 C5          2.9210   -1.6309    0.6081 C.ar      1 MOL        -0.1486
      6 C6          0.7634   -0.4849    1.9550 C.ar      1 MOL         0.1442
      7 C7          4.0457   -2.2285   -0.0938 C.2       1 MOL         0.6538
      8 C8          5.3246   -6.3735   -2.3632 C.3       1 MOL        -0.0934
      9 C9          4.2739   -5.5682   -1.6202 C.3       1 MOL        -0.0826
     10 C10         4.7877   -4.1907   -1.2303 C.3       1 MOL         0.1392
     11 O1          5.1331   -1.6666   -0.2808 O.2       1 MOL        -0.5243
     12 O2         -0.2895    0.0740    2.6119 O.3       1 MOL        -0.4924
     13 O3          3.7553   -3.4945   -0.5238 O.3       1 MOL        -0.4427
     14 H1          3.9455    0.2306    1.0068 H         1 MOL         0.1454
     15 H2          1.6435   -3.3571    0.3685 H         1 MOL         0.1454
     16 H3          2.0370    1.2407    2.1961 H         1 MOL         0.1487
     17 H4         -0.2633   -2.3414    1.5594 H         1 MOL         0.1487
     18 H5          5.6555   -5.8486   -3.2650 H         1 MOL         0.0381
     19 H6          6.1990   -6.5368   -1.7255 H         1 MOL         0.0381
     20 H7          4.9325   -7.3516   -2.6590 H         1 MOL         0.0381
     21 H8          3.9561   -6.1103   -0.7214 H         1 MOL         0.0517
     22 H9          3.3764   -5.4637   -2.2416 H         1 MOL         0.0517
     23 H10         5.6634   -4.2703   -0.5781 H         1 MOL         0.0511
     24 H11         5.0564   -3.6084   -2.1174 H         1 MOL         0.0511
     25 H12        -0.0635    0.9699    2.9089 H         1 MOL         0.4229
@<TRIPOS>BOND
     1    1    3 ar
     2    1    5 ar
     3    2    4 ar
     4    2    5 ar
     5    3    6 ar
     6    4    6 ar
     7    5    7 1
     8    6   12 1
     9    7   11 2
    10    7   13 1
    11    8    9 1
    12    9   10 1
    13   10   13 1
    14    1   14 1
    15    2   15 1
    16    3   16 1
    17    4   17 1
    18    8   18 1
    19    8   19 1
    20    8   20 1
    21    9   21 1
    22    9   22 1
    23   10   23 1
    24   10   24 1
    25   12   25 1
