@<TRIPOS>MOLECULE
isopropenylbenzene
   19    19     0     0     0
SMALL
USER_CHARGES

@<TRIPOS>ATOM
      1 C1          4.0871    1.3363    6.7060 C.ar      1 MOL        -0.1304
      2 C2          4.4127   -0.0093    6.5357 C.ar      1 MOL        -0.1308
      3 C3          2.9954    1.8807    6.0297 C.ar      1 MOL        -0.1308
      4 C4          3.6466   -0.8104    5.6889 C.ar      1 MOL        -0.1191
      5 C5          2.2293    1.0796    5.1830 C.ar      1 MOL        -0.1191
      6 C6          2.5549   -0.2660    5.0126 C.ar      1 MOL        -0.0573
      7 C7          2.3828   -1.6704    3.0902 C.2       1 MOL        -0.2144
      8 C8          1.7557   -1.1009    4.1294 C.2       1 MOL        -0.0642
      9 C9          0.2838   -1.3280    4.3360 C.3       1 MOL        -0.0591
     10 H1          4.6828    1.9597    7.3663 H         1 MOL         0.1298
     11 H2          5.2620   -0.4338    7.0631 H         1 MOL         0.1311
     12 H3          2.7411    2.9281    6.1632 H         1 MOL         0.1311
     13 H4          3.9128   -1.8576    5.5663 H         1 MOL         0.1343
     14 H5          1.3813    1.5187    4.6627 H         1 MOL         0.1343
     15 H6          1.8781   -2.3106    2.3727 H         1 MOL         0.1158
     16 H7          3.4458   -1.5154    2.9319 H         1 MOL         0.1158
     17 H8         -0.2961   -0.5669    3.8030 H         1 MOL         0.0443
     18 H9         -0.0132   -2.3136    3.9631 H         1 MOL         0.0443
     19 H10         0.0050   -1.2743    5.3939 H         1 MOL         0.0443
@<TRIPOS>BOND
     1    1    2 ar
     2    1    3 ar
     3    2    4 ar
     4    3    5 ar
     5    4    6 ar
     6    5    6 ar
     7    6    8 1
     8    7    8 2
     9    8    9 1
    10    1   10 1
    11    2   11 1
    12    3   12 1
    13    4   13 1
    14    5   14 1
    15    7   15 1
    16    7   16 1
    17    9   17 1
    18    9   18 1
    19    9   19 1
