@<TRIPOS>MOLECULE
isopropyl formate
   14    13     0     0     0
SMALL
USER_CHARGES

@<TRIPOS>ATOM
      1 C1          0.3773    2.8688    2.3074 C.2       1 MOL         0.6375
      2 C2          1.0765    0.0499    0.1958 C.3       1 MOL        -0.1283
      3 C3          2.8427    1.0382    1.6976 C.3       1 MOL        -0.1283
      4 C4          1.3532    0.9191    1.4130 C.3       1 MOL         0.1564
      5 O1          0.4005    2.4637    3.4590 O.2       1 MOL        -0.5437
      6 O2          0.8123    2.2184    1.1940 O.3       1 MOL        -0.4523
      7 H1         -0.0146    3.8539    2.0105 H         1 MOL         0.0727
      8 H2          1.5701    0.4471   -0.6963 H         1 MOL         0.0528
      9 H3          1.4331   -0.9713    0.3679 H         1 MOL         0.0528
     10 H4          0.0011   -0.0220   -0.0013 H         1 MOL         0.0528
     11 H5          3.3785    1.4589    0.8413 H         1 MOL         0.0528
     12 H6          3.2667    0.0547    1.9270 H         1 MOL         0.0528
     13 H7          3.0274    1.6718    2.5721 H         1 MOL         0.0528
     14 H8          0.8468    0.4961    2.2868 H         1 MOL         0.0690
@<TRIPOS>BOND
     1    1    5 2
     2    1    6 1
     3    2    4 1
     4    3    4 1
     5    4    6 1
     6    1    7 1
     7    2    8 1
     8    2    9 1
     9    2   10 1
    10    3   11 1
    11    3   12 1
    12    3   13 1
    13    4   14 1
