@<TRIPOS>MOLECULE
methylsulfinylmethane
   10     9     0     0     0
SMALL
USER_CHARGES

@<TRIPOS>ATOM
      1 C1          0.8446   -0.5678    0.4099 C.3       1 MOL        -0.1295
      2 C2          1.0227    1.2504    2.4101 C.3       1 MOL        -0.1295
      3 O1          2.1874   -1.1423    2.6713 O.2       1 MOL        -0.5060
      4 S1          0.8616   -0.5489    2.2956 S.o       1 MOL         0.2666
      5 H1          0.7501   -1.5984    0.0610 H         1 MOL         0.0831
      6 H2          1.7774   -0.1354    0.0416 H         1 MOL         0.0831
      7 H3         -0.0028    0.0231    0.0561 H         1 MOL         0.0831
      8 H4          1.0572    1.5426    3.4619 H         1 MOL         0.0831
      9 H5          0.1630    1.7160    1.9236 H         1 MOL         0.0831
     10 H6          1.9431    1.5574    1.9091 H         1 MOL         0.0831
@<TRIPOS>BOND
     1    1    4 1
     2    2    4 1
     3    3    4 2
     4    1    5 1
     5    1    6 1
     6    1    7 1
     7    2    8 1
     8    2    9 1
     9    2   10 1
