@<TRIPOS>MOLECULE
pent-1-ene
   15    14     0     0     0
SMALL
USER_CHARGES

@<TRIPOS>ATOM
      1 C1          0.7313   -0.6922    0.4155 C.2       1 MOL        -0.2253
      2 C2          1.0744   -1.7916   -0.2651 C.2       1 MOL        -0.1611
      3 C3         -0.5140   -3.6833   -3.2192 C.3       1 MOL        -0.0936
      4 C4          0.6555   -2.0678   -1.6788 C.3       1 MOL        -0.0524
      5 C5         -0.1112   -3.3865   -1.7831 C.3       1 MOL        -0.0750
      6 H1          1.0566   -0.5325    1.4376 H         1 MOL         0.1097
      7 H2          0.1149    0.0703   -0.0478 H         1 MOL         0.1097
      8 H3          1.7029   -2.5318    0.2234 H         1 MOL         0.1187
      9 H4          0.3639   -3.7296   -3.8715 H         1 MOL         0.0333
     10 H5         -1.1766   -2.8982   -3.5968 H         1 MOL         0.0333
     11 H6         -1.0448   -4.6382   -3.2883 H         1 MOL         0.0333
     12 H7          0.0365   -1.2497   -2.0672 H         1 MOL         0.0448
     13 H8          1.5547   -2.1103   -2.3050 H         1 MOL         0.0448
     14 H9         -1.0123   -3.3474   -1.1589 H         1 MOL         0.0400
     15 H10         0.5051   -4.2120   -1.4065 H         1 MOL         0.0400
@<TRIPOS>BOND
     1    1    2 2
     2    2    4 1
     3    3    5 1
     4    4    5 1
     5    1    6 1
     6    1    7 1
     7    2    8 1
     8    3    9 1
     9    3   10 1
    10    3   11 1
    11    4   12 1
    12    4   13 1
    13    5   14 1
    14    5   15 1
