@<TRIPOS>MOLECULE
pentan-1-ol
   18    17     0     0     0
SMALL
USER_CHARGES

@<TRIPOS>ATOM
      1 C1          0.8186   -0.3802    0.6691 C.3       1 MOL        -0.0922
      2 C2          1.6185   -1.4417   -0.0691 C.3       1 MOL        -0.0792
      3 C3          2.2938   -0.8687   -1.3148 C.3       1 MOL        -0.0788
      4 C4          3.1237   -1.9294   -2.0346 C.3       1 MOL        -0.0843
      5 C5          3.8336   -1.3564   -3.2530 C.3       1 MOL         0.1323
      6 O1          4.5965   -2.3862   -3.8665 O.3       1 MOL        -0.6022
      7 H1          1.4582    0.4571    0.9663 H         1 MOL         0.0331
      8 H2          0.0111    0.0099    0.0414 H         1 MOL         0.0331
      9 H3          0.3713   -0.8036    1.5739 H         1 MOL         0.0331
     10 H4          0.9505   -2.2636   -0.3519 H         1 MOL         0.0404
     11 H5          2.3753   -1.8563    0.6070 H         1 MOL         0.0404
     12 H6          1.5317   -0.4729   -1.9971 H         1 MOL         0.0386
     13 H7          2.9390   -0.0288   -1.0292 H         1 MOL         0.0386
     14 H8          2.4843   -2.7645   -2.3467 H         1 MOL         0.0549
     15 H9          3.8659   -2.3597   -1.3509 H         1 MOL         0.0549
     16 H10         4.5106   -0.5456   -2.9657 H         1 MOL         0.0195
     17 H11         3.1116   -0.9763   -3.9827 H         1 MOL         0.0195
     18 H12         5.0348   -1.9896   -4.6369 H         1 MOL         0.3981
@<TRIPOS>BOND
     1    1    2 1
     2    2    3 1
     3    3    4 1
     4    4    5 1
     5    5    6 1
     6    1    7 1
     7    1    8 1
     8    1    9 1
     9    2   10 1
    10    2   11 1
    11    3   12 1
    12    3   13 1
    13    4   14 1
    14    4   15 1
    15    5   16 1
    16    5   17 1
    17    6   18 1
