@<TRIPOS>MOLECULE
methyl 2-chloroacetate
   11    10     0     0     0
SMALL
USER_CHARGES

@<TRIPOS>ATOM
      1 C1          1.4126   -1.6000    1.6012 C.2       1 MOL         0.6239
      2 C2         -0.3568   -0.1352    1.0261 C.3       1 MOL         0.1256
      3 C3          2.5225   -1.7683    2.6029 C.3       1 MOL        -0.0271
      4 O1          1.1538   -2.3617    0.6799 O.2       1 MOL        -0.5146
      5 O2          0.7387   -0.4465    1.8931 O.3       1 MOL        -0.4356
      6 Cl1         3.4108   -3.2680    2.2839 Cl        1 MOL        -0.1341
      7 H1         -0.8220    0.8001    1.3468 H         1 MOL         0.0536
      8 H2         -1.0879   -0.9471    1.0554 H         1 MOL         0.0536
      9 H3          0.0183   -0.0219    0.0061 H         1 MOL         0.0536
     10 H4          2.1068   -1.8290    3.6116 H         1 MOL         0.1005
     11 H5          3.2249   -0.9350    2.5226 H         1 MOL         0.1005
@<TRIPOS>BOND
     1    1    3 1
     2    1    4 2
     3    1    5 1
     4    2    5 1
     5    3    6 1
     6    2    7 1
     7    2    8 1
     8    2    9 1
     9    3   10 1
    10    3   11 1
