@<TRIPOS>MOLECULE
(2S,3R,4S,5R)-tetrahydropyran-2,3,4,5-tetrol
   20    20     0     0     0
SMALL
USER_CHARGES

@<TRIPOS>ATOM
      1 C1          0.3518   -0.7182   -0.7492 C.3       1 MOL         0.0961
      2 C2          0.3582   -2.1205   -0.1525 C.3       1 MOL         0.0809
      3 C3          0.9789   -3.1305   -1.1188 C.3       1 MOL         0.1541
      4 C4          2.3186   -2.6088   -1.6402 C.3       1 MOL         0.1009
      5 C5          2.2077   -1.1754   -2.1650 C.3       1 MOL         0.2972
      6 O1          1.6553   -0.3163   -1.1639 O.3       1 MOL        -0.4417
      7 O2         -0.9852   -2.4860    0.1441 O.3       1 MOL        -0.5737
      8 O3          1.2211   -4.3586   -0.4301 O.3       1 MOL        -0.5610
      9 O4          2.8090   -3.4532   -2.6757 O.3       1 MOL        -0.5600
     10 O5          1.4907   -1.0975   -3.3960 O.3       1 MOL        -0.6086
     11 H1         -0.3510   -0.6424   -1.5883 H         1 MOL         0.0636
     12 H2          0.0005   -0.0003    0.0004 H         1 MOL         0.0636
     13 H3          0.9178   -2.1172    0.7900 H         1 MOL         0.0377
     14 H4          0.2984   -3.3629   -1.9434 H         1 MOL         0.1263
     15 H5          3.0489   -2.6375   -0.8222 H         1 MOL         0.0406
     16 H6          3.2353   -0.7984   -2.3768 H         1 MOL         0.0673
     17 H7         -1.3174   -1.8323    0.7795 H         1 MOL         0.4013
     18 H8          1.8303   -4.1507    0.2942 H         1 MOL         0.3908
     19 H9          3.6545   -3.0755   -2.9653 H         1 MOL         0.4040
     20 H10         1.4739   -0.1609   -3.6447 H         1 MOL         0.4205
@<TRIPOS>BOND
     1    1    2 1
     2    1    6 1
     3    2    3 1
     4    2    7 1
     5    3    4 1
     6    3    8 1
     7    4    5 1
     8    4    9 1
     9    5    6 1
    10    5   10 1
    11    1   11 1
    12    1   12 1
    13    2   13 1
    14    3   14 1
    15    4   15 1
    16    5   16 1
    17    7   17 1
    18    8   18 1
    19    9   19 1
    20   10   20 1
