@<TRIPOS>MOLECULE
nitromethane
    7     6     0     0     0
SMALL
USER_CHARGES

@<TRIPOS>ATOM
      1 C1         -0.5250   -0.7555    0.5873 C.3       1 MOL        -0.1027
      2 N1         -1.8333   -0.9731   -0.0158 N.pl3     1 MOL         0.2341
      3 O1         -2.3095   -0.0741   -0.7435 O.3       1 MOL        -0.2091
      4 O2         -2.4132   -2.0586    0.2080 O.2       1 MOL        -0.2091
      5 H1         -0.6732   -0.2746    1.5558 H         1 MOL         0.0956
      6 H2          0.0550   -0.1137   -0.0783 H         1 MOL         0.0956
      7 H3         -0.0393   -1.7254    0.7077 H         1 MOL         0.0956
@<TRIPOS>BOND
     1    1    2 1
     2    2    3 1
     3    2    4 2
     4    1    5 1
     5    1    6 1
     6    1    7 1
