@<TRIPOS>MOLECULE
propan-2-ol
   12    11     0     0     0
SMALL
USER_CHARGES

@<TRIPOS>ATOM
      1 C1          1.0765    0.0499    0.1958 C.3       1 MOL        -0.1278
      2 C2          2.8427    1.0382    1.6976 C.3       1 MOL        -0.1278
      3 C3          1.3532    0.9191    1.4130 C.3       1 MOL         0.1348
      4 O1          0.8123    2.2184    1.1940 O.3       1 MOL        -0.5998
      5 H1          1.5701    0.4471   -0.6963 H         1 MOL         0.0420
      6 H2          1.4331   -0.9713    0.3679 H         1 MOL         0.0420
      7 H3          0.0011   -0.0220   -0.0013 H         1 MOL         0.0420
      8 H4          3.3785    1.4589    0.8413 H         1 MOL         0.0420
      9 H5          3.2667    0.0547    1.9270 H         1 MOL         0.0420
     10 H6          3.0274    1.6718    2.5721 H         1 MOL         0.0420
     11 H7          0.8468    0.4961    2.2868 H         1 MOL         0.0737
     12 H8          1.2532    2.5729    0.4061 H         1 MOL         0.3948
@<TRIPOS>BOND
     1    1    3 1
     2    2    3 1
     3    3    4 1
     4    1    5 1
     5    1    6 1
     6    1    7 1
     7    2    8 1
     8    2    9 1
     9    2   10 1
    10    3   11 1
    11    4   12 1
