@<TRIPOS>MOLECULE
(2S)-2-(6-methoxy-2-naphthyl)propanoic acid
   31    32     0     0     0
SMALL
USER_CHARGES

@<TRIPOS>ATOM
      1 C1         -0.0479   -3.3542    0.5448 C.ar      1 MOL        -0.1234
      2 C2          3.4207   -2.9899   -0.7267 C.ar      1 MOL        -0.0833
      3 C3         -0.4966   -2.0341    0.4940 C.ar      1 MOL        -0.0940
      4 C4          3.8693   -4.3100   -0.6758 C.ar      1 MOL        -0.1849
      5 C5          1.6484   -1.3369   -0.3665 C.ar      1 MOL        -0.0924
      6 C6          1.7243   -5.0072    0.1848 C.ar      1 MOL        -0.1593
      7 C7          2.1168   -2.6602   -0.3222 C.ar      1 MOL        -0.0687
      8 C8          1.2560   -3.6839    0.1403 C.ar      1 MOL         0.0030
      9 C9          0.3500   -1.0275    0.0392 C.ar      1 MOL        -0.0939
     10 C10         3.0228   -5.3167   -0.2210 C.ar      1 MOL         0.1259
     11 C11         0.6611    1.3117    0.9118 C.2       1 MOL         0.6349
     12 C12        -0.1414    0.9811   -1.4362 C.3       1 MOL        -0.0894
     13 C13         4.7996   -6.8512   -0.6003 C.3       1 MOL         0.1142
     14 C14        -0.1316    0.3829   -0.0147 C.3       1 MOL        -0.0526
     15 O1          1.6037    0.9545    1.6065 O.2       1 MOL        -0.5369
     16 O2          0.2069    2.5928    0.8990 O.3       1 MOL        -0.6169
     17 O3          3.4615   -6.6043   -0.1713 O.3       1 MOL        -0.3268
     18 H1         -0.7268   -4.1250    0.9039 H         1 MOL         0.1371
     19 H2          4.0988   -2.2188   -1.0857 H         1 MOL         0.1325
     20 H3         -1.5094   -1.8015    0.8122 H         1 MOL         0.1389
     21 H4          4.8816   -4.5455   -0.9930 H         1 MOL         0.1391
     22 H5          2.3000   -0.5395   -0.7204 H         1 MOL         0.1303
     23 H6          1.0745   -5.8059    0.5379 H         1 MOL         0.1511
     24 H7          0.8613    0.9895   -1.8776 H         1 MOL         0.0512
     25 H8         -0.7995    0.4016   -2.0928 H         1 MOL         0.0512
     26 H9         -0.4963    2.0177   -1.4398 H         1 MOL         0.0512
     27 H10         5.0212   -7.9174   -0.5095 H         1 MOL         0.0445
     28 H11         5.4929   -6.2706    0.0134 H         1 MOL         0.0445
     29 H12         4.8995   -6.5483   -1.6452 H         1 MOL         0.0445
     30 H13        -1.1783    0.4161    0.3462 H         1 MOL         0.0851
     31 H14         0.6869    3.2148    1.4861 H         1 MOL         0.4434
@<TRIPOS>BOND
     1    1    3 ar
     2    1    8 ar
     3    2    4 ar
     4    2    7 ar
     5    3    9 ar
     6    4   10 ar
     7    5    7 ar
     8    5    9 ar
     9    6    8 ar
    10    6   10 ar
    11    7    8 ar
    12    9   14 1
    13   10   17 1
    14   11   14 1
    15   11   15 2
    16   11   16 1
    17   12   14 1
    18   13   17 1
    19    1   18 1
    20    2   19 1
    21    3   20 1
    22    4   21 1
    23    5   22 1
    24    6   23 1
    25   12   24 1
    26   12   25 1
    27   12   26 1
    28   13   27 1
    29   13   28 1
    30   13   29 1
    31   14   30 1
    32   16   31 1
