@<TRIPOS>MOLECULE
methyl 4-methoxybenzoate
   22    22     0     0     0
SMALL
USER_CHARGES

@<TRIPOS>ATOM
      1 C1          1.8851   -1.0363   -0.1124 C.ar      1 MOL        -0.0548
      2 C2          2.8783   -1.6520    2.0022 C.ar      1 MOL        -0.0548
      3 C3          0.8066   -0.4630    0.5610 C.ar      1 MOL        -0.1859
      4 C4          1.7997   -1.0786    2.6757 C.ar      1 MOL        -0.1859
      5 C5          2.9210   -1.6309    0.6081 C.ar      1 MOL        -0.1475
      6 C6          0.7638   -0.4841    1.9551 C.ar      1 MOL         0.1456
      7 C7          4.0457   -2.2285   -0.0938 C.2       1 MOL         0.6490
      8 C8         -1.3132    0.6656    1.8143 C.3       1 MOL         0.1118
      9 C9          6.1157   -3.3767    0.2045 C.3       1 MOL         0.1236
     10 O1          4.1678   -2.2560   -1.3257 O.2       1 MOL        -0.5266
     11 O2         -0.2886    0.0750    2.6125 O.3       1 MOL        -0.3235
     12 O3          4.9583   -2.7585    0.7770 O.3       1 MOL        -0.4338
     13 H1          1.9078   -1.0136   -1.1990 H         1 MOL         0.1440
     14 H2          3.6806   -2.1126    2.5729 H         1 MOL         0.1440
     15 H3          0.0026   -0.0015   -0.0059 H         1 MOL         0.1498
     16 H4          1.7717   -1.0984    3.7617 H         1 MOL         0.1498
     17 H5         -2.0917    1.0740    2.4632 H         1 MOL         0.0477
     18 H6         -1.7382   -0.0896    1.1482 H         1 MOL         0.0477
     19 H7         -0.8791    1.4716    1.2180 H         1 MOL         0.0477
     20 H8          6.7591   -3.7562    1.0021 H         1 MOL         0.0507
     21 H9          6.6590   -2.6458   -0.3997 H         1 MOL         0.0507
     22 H10         5.7978   -4.2072   -0.4303 H         1 MOL         0.0507
@<TRIPOS>BOND
     1    1    3 ar
     2    1    5 ar
     3    2    4 ar
     4    2    5 ar
     5    3    6 ar
     6    4    6 ar
     7    5    7 1
     8    6   11 1
     9    7   10 2
    10    7   12 1
    11    8   11 1
    12    9   12 1
    13    1   13 1
    14    2   14 1
    15    3   15 1
    16    4   16 1
    17    8   17 1
    18    8   18 1
    19    8   19 1
    20    9   20 1
    21    9   21 1
    22    9   22 1
