@<TRIPOS>MOLECULE
oct-1-yne
   22    21     0     0     0
SMALL
USER_CHARGES

@<TRIPOS>ATOM
      1 C1         -2.4560    2.8095   -3.1936 C.1       1 MOL        -0.1637
      2 C2         -1.8978    1.8252   -2.7925 C.1       1 MOL        -0.1377
      3 C3          1.8182   -1.2748    2.9619 C.3       1 MOL        -0.0925
      4 C4         -1.2162    0.6181   -2.3049 C.3       1 MOL        -0.0048
      5 C5          1.3218   -1.4581    1.5366 C.3       1 MOL        -0.0799
      6 C6         -0.7189    0.8070   -0.8718 C.3       1 MOL        -0.0742
      7 C7          0.5507   -0.2314    1.0499 C.3       1 MOL        -0.0818
      8 C8          0.0244   -0.4332   -0.3721 C.3       1 MOL        -0.0784
      9 H1         -2.9522    3.6823   -3.5485 H         1 MOL         0.1632
     10 H2          0.9849   -1.0862    3.6462 H         1 MOL         0.0331
     11 H3          2.5030   -0.4228    3.0181 H         1 MOL         0.0331
     12 H4          2.3532   -2.1647    3.3085 H         1 MOL         0.0331
     13 H5         -1.9047   -0.2337   -2.3500 H         1 MOL         0.0591
     14 H6         -0.3717    0.3842   -2.9636 H         1 MOL         0.0591
     15 H7          2.1786   -1.6447    0.8787 H         1 MOL         0.0386
     16 H8          0.6786   -2.3447    1.4911 H         1 MOL         0.0386
     17 H9         -1.5680    1.0188   -0.2094 H         1 MOL         0.0463
     18 H10        -0.0547    1.6794   -0.8215 H         1 MOL         0.0463
     19 H11         1.2047    0.6486    1.0783 H         1 MOL         0.0401
     20 H12        -0.2885   -0.0322    1.7276 H         1 MOL         0.0401
     21 H13        -0.6487   -1.2988   -0.3951 H         1 MOL         0.0412
     22 H14         0.8613   -0.6559   -1.0452 H         1 MOL         0.0412
@<TRIPOS>BOND
     1    1    2 3
     2    2    4 1
     3    3    5 1
     4    4    6 1
     5    5    7 1
     6    6    8 1
     7    7    8 1
     8    1    9 1
     9    3   10 1
    10    3   11 1
    11    3   12 1
    12    4   13 1
    13    4   14 1
    14    5   15 1
    15    5   16 1
    16    6   17 1
    17    6   18 1
    18    7   19 1
    19    7   20 1
    20    8   21 1
    21    8   22 1
