@<TRIPOS>MOLECULE
1,3-dichloropropane
   11    10     0     0     0
SMALL
USER_CHARGES

@<TRIPOS>ATOM
      1 C1         -0.1595   -0.1129    0.6213 C.3       1 MOL        -0.1061
      2 C2          0.9879    0.8165    0.2315 C.3       1 MOL         0.0347
      3 C3         -0.9083   -0.7601   -0.5415 C.3       1 MOL         0.0347
      4 Cl1         0.4298    2.1969   -0.7409 Cl        1 MOL        -0.1851
      5 Cl2         0.1517   -1.7926   -1.5281 Cl        1 MOL        -0.1851
      6 H1          0.2397   -0.9015    1.2716 H         1 MOL         0.0716
      7 H2         -0.8815    0.4470    1.2291 H         1 MOL         0.0716
      8 H3          1.4557    1.2259    1.1323 H         1 MOL         0.0659
      9 H4          1.7619    0.2945   -0.3378 H         1 MOL         0.0659
     10 H5         -1.3622   -0.0153   -1.2010 H         1 MOL         0.0659
     11 H6         -1.7105   -1.3975   -0.1564 H         1 MOL         0.0659
@<TRIPOS>BOND
     1    1    2 1
     2    1    3 1
     3    2    4 1
     4    3    5 1
     5    1    6 1
     6    1    7 1
     7    2    8 1
     8    2    9 1
     9    3   10 1
    10    3   11 1
