@<TRIPOS>MOLECULE
[(Z)-(2-methyl-2-methylsulfanyl-propylidene)amino] N-methylcarbamate
   26    25     0     0     0
SMALL
USER_CHARGES

@<TRIPOS>ATOM
      1 C1          2.6040   -0.9448   -0.4694 C.2       1 MOL         0.3870
      2 C2          0.0739   -1.6726   -2.5937 C.2       1 MOL         0.7577
      3 C3          0.7673    0.3743    0.6883 C.3       1 MOL        -0.0937
      4 C4          2.1055    1.3693   -1.1946 C.3       1 MOL        -0.0937
      5 C5         -2.0344   -1.4810   -3.9053 C.3       1 MOL         0.0950
      6 C6          2.6209    2.5903    1.6054 C.3       1 MOL        -0.0343
      7 C7          2.1338    0.4195    0.0035 C.3       1 MOL        -0.0335
      8 N1          1.9357   -1.6468   -1.3255 N.2       1 MOL        -0.3649
      9 N2         -1.0630   -0.9820   -2.9593 N.am      1 MOL        -0.5663
     10 O1          0.4023   -2.7776   -3.0147 O.2       1 MOL        -0.5321
     11 O2          0.7848   -0.9340   -1.6877 O.3       1 MOL        -0.2498
     12 S1          3.3859    1.0049    1.2061 S.3       1 MOL        -0.3019
     13 H1          3.5510   -1.3244   -0.0399 H         1 MOL         0.0620
     14 H2          0.4631    1.3761    1.0147 H         1 MOL         0.0498
     15 H3         -0.0174    0.0064    0.0165 H         1 MOL         0.0498
     16 H4          0.7797   -0.2670    1.5774 H         1 MOL         0.0498
     17 H5          1.7718    2.3754   -0.9129 H         1 MOL         0.0498
     18 H6          1.4482    1.0019   -1.9913 H         1 MOL         0.0498
     19 H7          3.1095    1.4798   -1.6220 H         1 MOL         0.0498
     20 H8         -1.7697   -1.1650   -4.9176 H         1 MOL         0.0486
     21 H9         -3.0288   -1.0952   -3.6649 H         1 MOL         0.0486
     22 H10        -2.0654   -2.5735   -3.8744 H         1 MOL         0.0486
     23 H11         3.2321    3.1242    2.3372 H         1 MOL         0.0647
     24 H12         1.6250    2.4267    2.0243 H         1 MOL         0.0647
     25 H13         2.5331    3.1981    0.7016 H         1 MOL         0.0647
     26 H14        -1.2263   -0.0718   -2.5400 H         1 MOL         0.3296
@<TRIPOS>BOND
     1    1    7 1
     2    1    8 2
     3    2    9 am
     4    2   10 2
     5    2   11 1
     6    3    7 1
     7    4    7 1
     8    5    9 1
     9    6   12 1
    10    7   12 1
    11    8   11 1
    12    1   13 1
    13    3   14 1
    14    3   15 1
    15    3   16 1
    16    4   17 1
    17    4   18 1
    18    4   19 1
    19    5   20 1
    20    5   21 1
    21    5   22 1
    22    6   23 1
    23    6   24 1
    24    6   25 1
    25    9   26 1
