@<TRIPOS>MOLECULE
pyridine-3-carbaldehyde
   13    13     0     0     0
SMALL
USER_CHARGES

@<TRIPOS>ATOM
      1 C1          0.2265   -0.4197    0.9733 C.ar      1 MOL        -0.2604
      2 C2          1.3879   -0.0684    1.6522 C.ar      1 MOL        -0.0376
      3 C3         -0.6317   -1.3224    1.5803 C.ar      1 MOL         0.4227
      4 C4          0.7299   -1.5161    3.4206 C.ar      1 MOL         0.4387
      5 C5          1.6520   -0.6227    2.8997 C.ar      1 MOL        -0.3156
      6 C6          2.8572   -0.2746    3.6316 C.2       1 MOL         0.5824
      7 N1         -0.4092   -1.8816    2.7908 N.ar      1 MOL        -0.6737
      8 O1          3.1323   -0.7414    4.7416 O.2       1 MOL        -0.5240
      9 H1         -0.0005   -0.0000    0.0000 H         1 MOL         0.1514
     10 H2          2.0802    0.6368    1.2001 H         1 MOL         0.1599
     11 H3         -1.5507   -1.6291    1.0919 H         1 MOL         0.0272
     12 H4          0.8808   -1.9808    4.3904 H         1 MOL         0.0250
     13 H5          3.5558    0.4492    3.1559 H         1 MOL         0.0038
@<TRIPOS>BOND
     1    1    2 ar
     2    1    3 ar
     3    2    5 ar
     4    3    7 ar
     5    4    5 ar
     6    4    7 ar
     7    5    6 1
     8    6    8 2
     9    1    9 1
    10    2   10 1
    11    3   11 1
    12    4   12 1
    13    6   13 1
