@<TRIPOS>MOLECULE
1,3,5-trichloro-2-(2,6-dichlorophenyl)benzene
   22    23     0     0     0
SMALL
USER_CHARGES

@<TRIPOS>ATOM
      1 C1          1.8851   -1.0363   -0.1124 C.ar      1 MOL        -0.1045
      2 C2          0.8066   -0.4630    0.5610 C.ar      1 MOL        -0.1286
      3 C3          2.9210   -1.6309    0.6081 C.ar      1 MOL        -0.1286
      4 C4          1.1065   -2.1899    6.1869 C.ar      1 MOL        -0.1266
      5 C5          2.2720   -0.0747    6.2554 C.ar      1 MOL        -0.1266
      6 C6          1.7997   -1.0786    2.6757 C.ar      1 MOL        -0.0385
      7 C7          1.7551   -1.1008    4.1301 C.ar      1 MOL        -0.0344
      8 C8          0.7638   -0.4841    1.9551 C.ar      1 MOL         0.0495
      9 C9          2.8783   -1.6520    2.0022 C.ar      1 MOL         0.0495
     10 C10         1.6673   -1.1429    6.9181 C.ar      1 MOL         0.0379
     11 C11         1.1504   -2.1689    4.7928 C.ar      1 MOL         0.0560
     12 C12         2.3159   -0.0537    4.8614 C.ar      1 MOL         0.0560
     13 Cl1        -0.6017    0.2450    2.7295 Cl        1 MOL        -0.0717
     14 Cl2         4.1947   -2.4049    2.8365 Cl        1 MOL        -0.0717
     15 Cl3         1.6123   -1.1682    8.6382 Cl        1 MOL        -0.0751
     16 Cl4         0.4360   -3.4979    3.9444 Cl        1 MOL        -0.0633
     17 Cl5         3.0775    1.3014    4.0995 Cl        1 MOL        -0.0633
     18 H1          1.9183   -1.0198   -1.1979 H         1 MOL         0.1436
     19 H2          0.0079   -0.0042   -0.0166 H         1 MOL         0.1532
     20 H3          3.7537   -2.0729    0.0668 H         1 MOL         0.1532
     21 H4          0.6360   -3.0218    6.7068 H         1 MOL         0.1670
     22 H5          2.7065    0.7416    6.8287 H         1 MOL         0.1670
@<TRIPOS>BOND
     1    1    2 ar
     2    1    3 ar
     3    2    8 ar
     4    3    9 ar
     5    4   10 ar
     6    4   11 ar
     7    5   10 ar
     8    5   12 ar
     9    6    7 1
    10    6    8 ar
    11    6    9 ar
    12    7   11 ar
    13    7   12 ar
    14    8   13 1
    15    9   14 1
    16   10   15 1
    17   11   16 1
    18   12   17 1
    19    1   18 1
    20    2   19 1
    21    3   20 1
    22    4   21 1
    23    5   22 1
