@<TRIPOS>MOLECULE
2,5-dimethylpyridine
   17    17     0     0     0
SMALL
USER_CHARGES

@<TRIPOS>ATOM
      1 C1          1.3879   -0.0684    1.6522 C.ar      1 MOL        -0.0946
      2 C2          1.6520   -0.6227    2.8997 C.ar      1 MOL        -0.2440
      3 C3         -0.6317   -1.3224    1.5803 C.ar      1 MOL         0.4006
      4 C4          0.2265   -0.4197    0.9733 C.ar      1 MOL        -0.1992
      5 C5          0.7299   -1.5161    3.4206 C.ar      1 MOL         0.4073
      6 C6         -0.0843    0.1554   -0.3628 C.3       1 MOL        -0.0481
      7 C7          0.9809   -2.1299    4.7574 C.3       1 MOL        -0.1504
      8 N1         -0.4092   -1.8816    2.7908 N.ar      1 MOL        -0.6666
      9 H1          2.0917    0.6356    1.2169 H         1 MOL         0.1342
     10 H2          2.5544   -0.3570    3.4396 H         1 MOL         0.1430
     11 H3         -1.5532   -1.6341    1.0984 H         1 MOL         0.0209
     12 H4          0.3339   -0.4733   -1.1603 H         1 MOL         0.0461
     13 H5         -1.1686    0.2389   -0.5226 H         1 MOL         0.0461
     14 H6          0.3282    1.1686   -0.4705 H         1 MOL         0.0461
     15 H7          0.5461   -1.5088    5.5497 H         1 MOL         0.0528
     16 H8          0.5435   -3.1343    4.8223 H         1 MOL         0.0528
     17 H9          2.0561   -2.2380    4.9497 H         1 MOL         0.0528
@<TRIPOS>BOND
     1    1    2 ar
     2    1    4 ar
     3    2    5 ar
     4    3    4 ar
     5    3    8 ar
     6    4    6 1
     7    5    7 1
     8    5    8 ar
     9    1    9 1
    10    2   10 1
    11    3   11 1
    12    6   12 1
    13    6   13 1
    14    6   14 1
    15    7   15 1
    16    7   16 1
    17    7   17 1
