@<TRIPOS>MOLECULE
piperazine
   16    16     0     0     0
SMALL
USER_CHARGES

@<TRIPOS>ATOM
      1 C1         -0.8416    0.3213   -1.1066 C.3       1 MOL         0.1612
      2 C2         -0.8449   -1.0558   -0.4431 C.3       1 MOL         0.1613
      3 C3          0.8459    1.0594    0.4455 C.3       1 MOL         0.1613
      4 C4          0.8377   -0.3196    1.1048 C.3       1 MOL         0.1613
      5 N1         -0.4512    1.3643   -0.1581 N.3       1 MOL        -0.8203
      6 N2          0.4541   -1.3696    0.1575 N.3       1 MOL        -0.8203
      7 H1         -0.1625    0.3262   -1.9683 H         1 MOL         0.0338
      8 H2         -1.8451    0.5430   -1.4858 H         1 MOL         0.0338
      9 H3         -1.6308   -1.1074    0.3210 H         1 MOL         0.0338
     10 H4         -1.0789   -1.8174   -1.1949 H         1 MOL         0.0338
     11 H5          1.0754    1.8203    1.1994 H         1 MOL         0.0338
     12 H6          1.6347    1.1125   -0.3155 H         1 MOL         0.0338
     13 H7          1.8392   -0.5410    1.4900 H         1 MOL         0.0338
     14 H8          0.1556   -0.3260    1.9644 H         1 MOL         0.0338
     15 H9         -0.4014    2.2619   -0.6387 H         1 MOL         0.3623
     16 H10         0.3988   -2.2644    0.6428 H         1 MOL         0.3623
@<TRIPOS>BOND
     1    1    2 1
     2    1    5 1
     3    2    6 1
     4    3    4 1
     5    3    5 1
     6    4    6 1
     7    1    7 1
     8    1    8 1
     9    2    9 1
    10    2   10 1
    11    3   11 1
    12    3   12 1
    13    4   13 1
    14    4   14 1
    15    5   15 1
    16    6   16 1
