@<TRIPOS>MOLECULE
4-chlorophenol
   13    13     0     0     0
SMALL
USER_CHARGES

@<TRIPOS>ATOM
      1 C1          1.8851   -1.0363   -0.1124 C.ar      1 MOL        -0.1782
      2 C2          2.8783   -1.6520    2.0022 C.ar      1 MOL        -0.1782
      3 C3          0.8066   -0.4630    0.5610 C.ar      1 MOL        -0.0872
      4 C4          1.7997   -1.0786    2.6757 C.ar      1 MOL        -0.0872
      5 C5          2.9210   -1.6309    0.6081 C.ar      1 MOL         0.1256
      6 C6          0.7638   -0.4841    1.9551 C.ar      1 MOL        -0.0199
      7 O1          3.9732   -2.1909   -0.0488 O.3       1 MOL        -0.4942
      8 Cl1        -0.5675    0.2219    2.7861 Cl        1 MOL        -0.0954
      9 H1          1.9120   -1.0168   -1.1983 H         1 MOL         0.1471
     10 H2          3.6819   -2.1140    2.5689 H         1 MOL         0.1471
     11 H3          0.0057   -0.0039   -0.0133 H         1 MOL         0.1496
     12 H4          1.7791   -1.1032    3.7623 H         1 MOL         0.1496
     13 H5          3.8591   -2.0976   -1.0081 H         1 MOL         0.4211
@<TRIPOS>BOND
     1    1    3 ar
     2    1    5 ar
     3    2    4 ar
     4    2    5 ar
     5    3    6 ar
     6    4    6 ar
     7    5    7 1
     8    6    8 1
     9    1    9 1
    10    2   10 1
    11    3   11 1
    12    4   12 1
    13    7   13 1
