@<TRIPOS>MOLECULE
4-methoxyaniline
   18    18     0     0     0
SMALL
USER_CHARGES

@<TRIPOS>ATOM
      1 C1          1.8851   -1.0363   -0.1124 C.ar      1 MOL        -0.1549
      2 C2          2.8783   -1.6520    2.0022 C.ar      1 MOL        -0.1549
      3 C3          0.8066   -0.4630    0.5610 C.ar      1 MOL        -0.1442
      4 C4          1.7997   -1.0786    2.6757 C.ar      1 MOL        -0.1442
      5 C5          2.9210   -1.6309    0.6081 C.ar      1 MOL         0.0982
      6 C6          0.7638   -0.4841    1.9551 C.ar      1 MOL         0.0848
      7 C7         -1.3130    0.6659    1.8137 C.3       1 MOL         0.1155
      8 N1          4.0115   -2.2106   -0.0728 N.pl3     1 MOL        -0.8074
      9 O1         -0.2887    0.0753    2.6122 O.3       1 MOL        -0.3279
     10 H1          1.9083   -1.0142   -1.1990 H         1 MOL         0.1321
     11 H2          3.6801   -2.1126    2.5736 H         1 MOL         0.1321
     12 H3          0.0026   -0.0014   -0.0058 H         1 MOL         0.1417
     13 H4          1.7720   -1.0982    3.7618 H         1 MOL         0.1417
     14 H5         -2.0916    1.0746    2.4624 H         1 MOL         0.0419
     15 H6         -1.7380   -0.0893    1.1477 H         1 MOL         0.0419
     16 H7         -0.8787    1.4718    1.2174 H         1 MOL         0.0419
     17 H8          4.0075   -2.2307   -1.0726 H         1 MOL         0.3810
     18 H9          4.7240   -2.6749    0.4533 H         1 MOL         0.3810
@<TRIPOS>BOND
     1    1    3 ar
     2    1    5 ar
     3    2    4 ar
     4    2    5 ar
     5    3    6 ar
     6    4    6 ar
     7    5    8 1
     8    6    9 1
     9    7    9 1
    10    1   10 1
    11    2   11 1
    12    3   12 1
    13    4   13 1
    14    7   14 1
    15    7   15 1
    16    7   16 1
    17    8   17 1
    18    8   18 1
