@<TRIPOS>MOLECULE
pentyl acetate
   23    22     0     0     0
SMALL
USER_CHARGES

@<TRIPOS>ATOM
      1 C1          5.2396   -2.0410   -5.0250 C.2       1 MOL         0.6433
      2 C2          5.9981   -3.2190   -5.5571 C.3       1 MOL        -0.1645
      3 C3          0.8518   -0.3688    0.6905 C.3       1 MOL        -0.0926
      4 C4          1.6513   -1.4310   -0.0471 C.3       1 MOL        -0.0798
      5 C5          2.2938   -0.8687   -1.3148 C.3       1 MOL        -0.0780
      6 C6          3.1237   -1.9294   -2.0346 C.3       1 MOL        -0.1174
      7 C7          3.8013   -1.3663   -3.2758 C.3       1 MOL         0.1550
      8 O1          5.2382   -0.9344   -5.5470 O.2       1 MOL        -0.4996
      9 O2          4.5660   -2.3952   -3.8884 O.3       1 MOL        -0.4766
     10 H1          7.0002   -3.2421   -5.1220 H         1 MOL         0.0750
     11 H2          6.0523   -3.1635   -6.6473 H         1 MOL         0.0750
     12 H3          5.4770   -4.1404   -5.2814 H         1 MOL         0.0750
     13 H4          1.4856    0.4815    0.9618 H         1 MOL         0.0327
     14 H5          0.0267    0.0005    0.0732 H         1 MOL         0.0327
     15 H6          0.4284   -0.7838    1.6105 H         1 MOL         0.0327
     16 H7          0.9892   -2.2661   -0.3036 H         1 MOL         0.0422
     17 H8          2.4270   -1.8247    0.6201 H         1 MOL         0.0422
     18 H9          1.5129   -0.4939   -1.9877 H         1 MOL         0.0385
     19 H10         2.9330   -0.0158   -1.0553 H         1 MOL         0.0385
     20 H11         2.4898   -2.7778   -2.3208 H         1 MOL         0.0644
     21 H12         3.8852   -2.3389   -1.3593 H         1 MOL         0.0644
     22 H13         4.4727   -0.5420   -3.0147 H         1 MOL         0.0485
     23 H14         3.0598   -1.0074   -3.9966 H         1 MOL         0.0485
@<TRIPOS>BOND
     1    1    2 1
     2    1    8 2
     3    1    9 1
     4    3    4 1
     5    4    5 1
     6    5    6 1
     7    6    7 1
     8    7    9 1
     9    2   10 1
    10    2   11 1
    11    2   12 1
    12    3   13 1
    13    3   14 1
    14    3   15 1
    15    4   16 1
    16    4   17 1
    17    5   18 1
    18    5   19 1
    19    6   20 1
    20    6   21 1
    21    7   22 1
    22    7   23 1
