@<TRIPOS>MOLECULE
(2R)-1,1,1-trifluoropropan-2-ol
   12    11     0     0     0
SMALL
USER_CHARGES

@<TRIPOS>ATOM
      1 C1         -0.7763    0.5918    0.8349 C.3       1 MOL        -0.1385
      2 C2         -0.2372   -0.1769   -0.3621 C.3       1 MOL         0.1124
      3 C3          1.1381   -0.7496   -0.0933 C.3       1 MOL         0.6330
      4 O1         -0.1452    0.6998   -1.4804 O.3       1 MOL        -0.5801
      5 F1          1.6183   -1.3896   -1.1822 F         1 MOL        -0.2326
      6 F2          2.0149    0.2299    0.2202 F         1 MOL        -0.2326
      7 F3          1.1202   -1.6309    0.9292 F         1 MOL        -0.2326
      8 H1         -0.1017    1.4088    1.1138 H         1 MOL         0.0619
      9 H2         -0.9132   -0.0628    1.7007 H         1 MOL         0.0619
     10 H3         -1.7404    1.0513    0.5914 H         1 MOL         0.0619
     11 H4         -0.9249   -0.9878   -0.6244 H         1 MOL         0.0671
     12 H5         -1.0427    1.0253   -1.6523 H         1 MOL         0.4184
@<TRIPOS>BOND
     1    1    2 1
     2    2    3 1
     3    2    4 1
     4    3    5 1
     5    3    6 1
     6    3    7 1
     7    1    8 1
     8    1    9 1
     9    1   10 1
    10    2   11 1
    11    4   12 1
