@<TRIPOS>MOLECULE
mesitylene
   21    21     0     0     0
SMALL
USER_CHARGES

@<TRIPOS>ATOM
      1 C1          1.8851   -1.0363   -0.1124 C.ar      1 MOL        -0.1355
      2 C2          0.7638   -0.4841    1.9551 C.ar      1 MOL        -0.1354
      3 C3          2.8783   -1.6520    2.0022 C.ar      1 MOL        -0.1354
      4 C4          0.8066   -0.4630    0.5610 C.ar      1 MOL        -0.0708
      5 C5          2.9210   -1.6309    0.6081 C.ar      1 MOL        -0.0708
      6 C6          1.7997   -1.0786    2.6757 C.ar      1 MOL        -0.0708
      7 C7         -0.3006    0.1729   -0.2100 C.3       1 MOL        -0.0533
      8 C8          4.0748   -2.2437   -0.1114 C.3       1 MOL        -0.0533
      9 C9          1.7536   -1.1011    4.1663 C.3       1 MOL        -0.0533
     10 H1          1.9188   -1.0205   -1.1993 H         1 MOL         0.1297
     11 H2         -0.0772   -0.0371    2.4801 H         1 MOL         0.1297
     12 H3          3.6857   -2.1154    2.5642 H         1 MOL         0.1297
     13 H4         -1.0805   -0.5643   -0.4366 H         1 MOL         0.0432
     14 H5         -0.7550    0.9985    0.3527 H         1 MOL         0.0432
     15 H6          0.0640    0.5956   -1.1553 H         1 MOL         0.0432
     16 H7          4.8665   -1.5006   -0.2665 H         1 MOL         0.0432
     17 H8          4.4943   -3.0864    0.4532 H         1 MOL         0.0432
     18 H9          3.7703   -2.6372   -1.0900 H         1 MOL         0.0432
     19 H10         1.2454   -2.0068    4.5190 H         1 MOL         0.0432
     20 H11         2.7633   -1.0787    4.5965 H         1 MOL         0.0432
     21 H12         1.2205   -0.2265    4.5615 H         1 MOL         0.0432
@<TRIPOS>BOND
     1    1    4 ar
     2    1    5 ar
     3    2    4 ar
     4    2    6 ar
     5    3    5 ar
     6    3    6 ar
     7    4    7 1
     8    5    8 1
     9    6    9 1
    10    1   10 1
    11    2   11 1
    12    3   12 1
    13    7   13 1
    14    7   14 1
    15    7   15 1
    16    8   16 1
    17    8   17 1
    18    8   18 1
    19    9   19 1
    20    9   20 1
    21    9   21 1
