@<TRIPOS>MOLECULE
trimethyl phosphate
   17    16     0     0     0
SMALL
USER_CHARGES

@<TRIPOS>ATOM
      1 C1          1.0022   -0.2850   -0.3279 C.3       1 MOL         0.1414
      2 C2          1.1533   -0.7794   -4.7427 C.3       1 MOL         0.1414
      3 C3          3.3408    1.8571   -2.0448 C.3       1 MOL         0.1414
      4 O1          2.8147   -2.0294   -2.3083 O.2       1 MOL        -0.8039
      5 O2          1.0804   -0.1386   -1.7355 O.3       1 MOL        -0.5544
      6 O3          2.1854   -0.1335   -4.0172 O.3       1 MOL        -0.5544
      7 O4          3.5625    0.4610   -1.9406 O.3       1 MOL        -0.5544
      8 P1          2.4477   -0.5829   -2.4828 P.3       1 MOL         1.5845
      9 H1          0.0244    0.0561    0.0209 H         1 MOL         0.0509
     10 H2          1.7944    0.3010    0.1448 H         1 MOL         0.0509
     11 H3          1.1301   -1.3396   -0.0726 H         1 MOL         0.0509
     12 H4          1.1041   -0.3667   -5.7534 H         1 MOL         0.0509
     13 H5          0.1992   -0.6316   -4.2305 H         1 MOL         0.0509
     14 H6          1.3730   -1.8482   -4.7984 H         1 MOL         0.0509
     15 H7          4.1965    2.3947   -1.6292 H         1 MOL         0.0509
     16 H8          2.4306    2.1239   -1.5018 H         1 MOL         0.0509
     17 H9          3.2245    2.1208   -3.0987 H         1 MOL         0.0509
@<TRIPOS>BOND
     1    1    5 1
     2    2    6 1
     3    3    7 1
     4    4    8 2
     5    5    8 1
     6    6    8 1
     7    7    8 1
     8    1    9 1
     9    1   10 1
    10    1   11 1
    11    2   12 1
    12    2   13 1
    13    2   14 1
    14    3   15 1
    15    3   16 1
    16    3   17 1
