@<TRIPOS>MOLECULE
isobutyl 2-methylpropanoate
   26    25     0     0     0
SMALL
USER_CHARGES

@<TRIPOS>ATOM
      1 C1          1.4247   -0.3057   -1.6679 C.2       1 MOL         0.6462
      2 C2          1.3699   -1.9949    0.1583 C.3       1 MOL        -0.0912
      3 C3         -0.5633   -0.4172   -0.1461 C.3       1 MOL        -0.0912
      4 C4          1.9646   -1.5716   -5.6312 C.3       1 MOL        -0.0909
      5 C5          4.1591   -0.3564   -5.7031 C.3       1 MOL        -0.0909
      6 C6          2.7463   -0.2387   -3.6300 C.3       1 MOL         0.1511
      7 C7          0.5295   -1.2187   -0.8487 C.3       1 MOL        -0.1225
      8 C8          3.1733   -1.1109   -4.8138 C.3       1 MOL        -0.0751
      9 O1          1.7001    0.8503   -1.3743 O.2       1 MOL        -0.4952
     10 O2          1.8767   -0.9792   -2.7675 O.3       1 MOL        -0.4768
     11 H1          1.8698   -1.3158    0.8567 H         1 MOL         0.0473
     12 H2          2.1367   -2.5953   -0.3438 H         1 MOL         0.0473
     13 H3          0.7478   -2.6811    0.7430 H         1 MOL         0.0473
     14 H4         -0.1279    0.2993    0.5582 H         1 MOL         0.0473
     15 H5         -1.2322   -1.0795    0.4145 H         1 MOL         0.0473
     16 H6         -1.1754    0.1411   -0.8632 H         1 MOL         0.0473
     17 H7          1.4284   -0.7121   -6.0477 H         1 MOL         0.0377
     18 H8          1.2619   -2.1412   -5.0135 H         1 MOL         0.0377
     19 H9          2.2719   -2.2065   -6.4686 H         1 MOL         0.0377
     20 H10         3.7000    0.5501   -6.1115 H         1 MOL         0.0377
     21 H11         4.4765   -0.9786   -6.5466 H         1 MOL         0.0377
     22 H12         5.0537   -0.0606   -5.1444 H         1 MOL         0.0377
     23 H13         3.6192    0.0707   -3.0457 H         1 MOL         0.0433
     24 H14         2.2181    0.6585   -3.9703 H         1 MOL         0.0433
     25 H15         0.0380   -1.9164   -1.5380 H         1 MOL         0.0754
     26 H16         3.6676   -2.0101   -4.4244 H         1 MOL         0.0643
@<TRIPOS>BOND
     1    1    7 1
     2    1    9 2
     3    1   10 1
     4    2    7 1
     5    3    7 1
     6    4    8 1
     7    5    8 1
     8    6    8 1
     9    6   10 1
    10    2   11 1
    11    2   12 1
    12    2   13 1
    13    3   14 1
    14    3   15 1
    15    3   16 1
    16    4   17 1
    17    4   18 1
    18    4   19 1
    19    5   20 1
    20    5   21 1
    21    5   22 1
    22    6   23 1
    23    6   24 1
    24    7   25 1
    25    8   26 1
