@<TRIPOS>MOLECULE
(6S)-6-isopropyl-3-methyl-cyclohex-2-en-1-one
   27    27     0     0     0
SMALL
USER_CHARGES

@<TRIPOS>ATOM
      1 C1          1.1233   -0.5558    0.4050 C.2       1 MOL        -0.2574
      2 C2          0.1181   -1.2537    0.9552 C.2       1 MOL        -0.0383
      3 C3          0.8490    0.5483   -0.5514 C.2       1 MOL         0.5672
      4 C4         -1.3334   -0.9388    0.7020 C.3       1 MOL        -0.0589
      5 C5         -1.5447    0.4689    0.1482 C.3       1 MOL        -0.0735
      6 C6         -0.5893    0.7594   -1.0083 C.3       1 MOL        -0.1557
      7 C7          0.3848   -2.4123    1.8720 C.3       1 MOL        -0.0775
      8 C8         -2.0193    2.2370   -2.4490 C.3       1 MOL        -0.0948
      9 C9         -0.9478    3.1623   -0.3755 C.3       1 MOL        -0.0948
     10 C10        -0.7985    2.1772   -1.5330 C.3       1 MOL        -0.0538
     11 O1          1.7907    1.2067   -0.9896 O.2       1 MOL        -0.5382
     12 H1          2.1632   -0.7846    0.6112 H         1 MOL         0.1507
     13 H2         -1.7386   -1.6799    0.0023 H         1 MOL         0.0581
     14 H3         -1.9033   -1.0293    1.6346 H         1 MOL         0.0581
     15 H4         -2.5858    0.5778   -0.1784 H         1 MOL         0.0502
     16 H5         -1.3866    1.1980    0.9547 H         1 MOL         0.0502
     17 H6         -0.7740    0.0526   -1.8275 H         1 MOL         0.0764
     18 H7          0.4475   -2.0551    2.8969 H         1 MOL         0.0507
     19 H8          1.3223   -2.8871    1.5921 H         1 MOL         0.0507
     20 H9         -0.4226   -3.1355    1.7853 H         1 MOL         0.0507
     21 H10        -2.9334    1.9589   -1.9130 H         1 MOL         0.0387
     22 H11        -1.9028    1.5536   -3.2966 H         1 MOL         0.0387
     23 H12        -2.1559    3.2470   -2.8496 H         1 MOL         0.0387
     24 H13        -1.8191    2.9211    0.2430 H         1 MOL         0.0387
     25 H14        -1.0695    4.1849   -0.7481 H         1 MOL         0.0387
     26 H15        -0.0611    3.1437    0.2670 H         1 MOL         0.0387
     27 H16         0.0848    2.4635   -2.1173 H         1 MOL         0.0480
@<TRIPOS>BOND
     1    1    2 2
     2    1    3 1
     3    2    4 1
     4    2    7 1
     5    3    6 1
     6    3   11 2
     7    4    5 1
     8    5    6 1
     9    6   10 1
    10    8   10 1
    11    9   10 1
    12    1   12 1
    13    4   13 1
    14    4   14 1
    15    5   15 1
    16    5   16 1
    17    6   17 1
    18    7   18 1
    19    7   19 1
    20    7   20 1
    21    8   21 1
    22    8   22 1
    23    8   23 1
    24    9   24 1
    25    9   25 1
    26    9   26 1
    27   10   27 1
