@<TRIPOS>MOLECULE
propanal
   10     9     0     0     0
SMALL
USER_CHARGES

@<TRIPOS>ATOM
      1 C1         -1.5416   -2.3179    0.1522 C.2       1 MOL         0.5617
      2 C2          0.4289   -0.8128    0.5955 C.3       1 MOL        -0.0887
      3 C3         -0.6597   -1.6801    1.1974 C.3       1 MOL        -0.1985
      4 O1         -1.3945   -2.1900   -1.0585 O.2       1 MOL        -0.5239
      5 H1         -2.3649   -2.9347    0.5523 H         1 MOL        -0.0103
      6 H2          0.0001   -0.0036   -0.0049 H         1 MOL         0.0433
      7 H3          1.0849   -1.4005   -0.0553 H         1 MOL         0.0433
      8 H4          1.0411   -0.3660    1.3847 H         1 MOL         0.0433
      9 H5         -0.2139   -2.4828    1.7934 H         1 MOL         0.0649
     10 H6         -1.2989   -1.0801    1.8530 H         1 MOL         0.0649
@<TRIPOS>BOND
     1    1    3 1
     2    1    4 2
     3    2    3 1
     4    1    5 1
     5    2    6 1
     6    2    7 1
     7    2    8 1
     8    3    9 1
     9    3   10 1
