@<TRIPOS>MOLECULE
dimethyl sulfate
   13    12     0     0     0
SMALL
USER_CHARGES

@<TRIPOS>ATOM
      1 C1          0.9056    0.5937   -0.1920 C.3       1 MOL         0.1542
      2 C2          2.8912    4.6411    2.3337 C.3       1 MOL         0.1542
      3 O1          2.4485    3.2406   -0.3603 O.2       1 MOL        -0.6787
      4 O2          3.4635    1.6803    1.3422 O.2       1 MOL        -0.6787
      5 O3          1.0186    1.5714    0.8310 O.3       1 MOL        -0.5482
      6 O4          1.9981    3.5680    2.0770 O.3       1 MOL        -0.5482
      7 S1          2.3591    2.5054    0.8880 S.o2      1 MOL         1.8300
      8 H1         -0.0432    0.0621   -0.0857 H         1 MOL         0.0526
      9 H2          1.7394   -0.1091   -0.1193 H         1 MOL         0.0526
     10 H3          0.9348    1.0915   -1.1642 H         1 MOL         0.0526
     11 H4          2.5027    5.2515    3.1526 H         1 MOL         0.0526
     12 H5          3.0005    5.2490    1.4320 H         1 MOL         0.0526
     13 H6          3.8647    4.2335    2.6161 H         1 MOL         0.0526
@<TRIPOS>BOND
     1    1    5 1
     2    2    6 1
     3    3    7 2
     4    4    7 2
     5    5    7 1
     6    6    7 1
     7    1    8 1
     8    1    9 1
     9    1   10 1
    10    2   11 1
    11    2   12 1
    12    2   13 1
