@<TRIPOS>MOLECULE
m-xylene
   18    18     0     0     0
SMALL
USER_CHARGES

@<TRIPOS>ATOM
      1 C1          1.8851   -1.0363   -0.1124 C.ar      1 MOL        -0.1234
      2 C2          0.8066   -0.4630    0.5610 C.ar      1 MOL        -0.1353
      3 C3          2.9210   -1.6309    0.6081 C.ar      1 MOL        -0.1353
      4 C4          1.7997   -1.0786    2.6757 C.ar      1 MOL        -0.1314
      5 C5          0.7638   -0.4841    1.9551 C.ar      1 MOL        -0.0739
      6 C6          2.8783   -1.6520    2.0022 C.ar      1 MOL        -0.0739
      7 C7         -0.3905    0.1278    2.6743 C.3       1 MOL        -0.0537
      8 C8          3.9863   -2.2872    2.7726 C.3       1 MOL        -0.0537
      9 H1          1.9183   -1.0199   -1.1980 H         1 MOL         0.1298
     10 H2          0.0037   -0.0025   -0.0089 H         1 MOL         0.1296
     11 H3          3.7578   -2.0744    0.0751 H         1 MOL         0.1296
     12 H4          1.7665   -1.0963    3.7625 H         1 MOL         0.1301
     13 H5         -1.1815   -0.6161    2.8297 H         1 MOL         0.0436
     14 H6         -0.0867    0.5221    3.6527 H         1 MOL         0.0436
     15 H7         -0.8109    0.9699    2.1092 H         1 MOL         0.0436
     16 H8          4.7659   -1.5495    2.9987 H         1 MOL         0.0436
     17 H9          3.6227   -2.7101    3.7180 H         1 MOL         0.0436
     18 H10         4.4408   -3.1126    2.2094 H         1 MOL         0.0436
@<TRIPOS>BOND
     1    1    2 ar
     2    1    3 ar
     3    2    5 ar
     4    3    6 ar
     5    4    5 ar
     6    4    6 ar
     7    5    7 1
     8    6    8 1
     9    1    9 1
    10    2   10 1
    11    3   11 1
    12    4   12 1
    13    7   13 1
    14    7   14 1
    15    7   15 1
    16    8   16 1
    17    8   17 1
    18    8   18 1
