@<TRIPOS>MOLECULE
1,2-bis(trifluoromethyl)benzene
   18    18     0     0     0
SMALL
USER_CHARGES

@<TRIPOS>ATOM
      1 C1          1.8851   -1.0363   -0.1124 C.ar      1 MOL        -0.1068
      2 C2          0.8066   -0.4630    0.5610 C.ar      1 MOL        -0.1067
      3 C3          2.9210   -1.6309    0.6081 C.ar      1 MOL        -0.0919
      4 C4          0.7638   -0.4841    1.9551 C.ar      1 MOL        -0.0919
      5 C5          2.8783   -1.6520    2.0022 C.ar      1 MOL        -0.1179
      6 C6          1.7997   -1.0786    2.6757 C.ar      1 MOL        -0.1179
      7 C7          3.9980   -2.2951    2.7528 C.3       1 MOL         0.6808
      8 C8          1.7323   -1.0885    4.1677 C.3       1 MOL         0.6808
      9 F1          4.9722   -2.8078    1.9455 F         1 MOL        -0.2262
     10 F2          4.6464   -1.4429    3.5993 F         1 MOL        -0.2262
     11 F3          3.5779   -3.3355    3.5286 F         1 MOL        -0.2262
     12 F4          0.6134   -0.4866    4.6670 F         1 MOL        -0.2262
     13 F5          1.7335   -2.3435    4.7046 F         1 MOL        -0.2262
     14 F6          2.7861   -0.4411    4.7431 F         1 MOL        -0.2262
     15 H1          1.9184   -1.0189   -1.1977 H         1 MOL         0.1499
     16 H2          0.0005    0.0001   -0.0007 H         1 MOL         0.1499
     17 H3          3.7577   -2.0734    0.0740 H         1 MOL         0.1643
     18 H4         -0.0811   -0.0352    2.4707 H         1 MOL         0.1643
@<TRIPOS>BOND
     1    1    2 ar
     2    1    3 ar
     3    2    4 ar
     4    3    5 ar
     5    4    6 ar
     6    5    6 ar
     7    5    7 1
     8    6    8 1
     9    7    9 1
    10    7   10 1
    11    7   11 1
    12    8   12 1
    13    8   13 1
    14    8   14 1
    15    1   15 1
    16    2   16 1
    17    3   17 1
    18    4   18 1
