@<TRIPOS>MOLECULE
1,2,4-trimethylbenzene
   21    21     0     0     0
SMALL
USER_CHARGES

@<TRIPOS>ATOM
      1 C1          1.8851   -1.0363   -0.1124 C.ar      1 MOL        -0.1315
      2 C2          0.8066   -0.4630    0.5610 C.ar      1 MOL        -0.1250
      3 C3          2.8783   -1.6520    2.0022 C.ar      1 MOL        -0.1288
      4 C4          2.9210   -1.6309    0.6081 C.ar      1 MOL        -0.0790
      5 C5          0.7638   -0.4841    1.9551 C.ar      1 MOL        -0.0809
      6 C6          1.7997   -1.0786    2.6757 C.ar      1 MOL        -0.0732
      7 C7          4.0743   -2.2433   -0.1121 C.3       1 MOL        -0.0523
      8 C8         -0.4007    0.1371    2.6541 C.3       1 MOL        -0.0534
      9 C9          1.7757   -1.1129    4.1687 C.3       1 MOL        -0.0540
     10 H1          1.9103   -1.0148   -1.1988 H         1 MOL         0.1291
     11 H2          0.0048   -0.0016   -0.0096 H         1 MOL         0.1296
     12 H3          3.6860   -2.1163    2.5632 H         1 MOL         0.1295
     13 H4          4.8660   -1.5001   -0.2674 H         1 MOL         0.0431
     14 H5          4.4943   -3.0863    0.4519 H         1 MOL         0.0431
     15 H6          3.7695   -2.6366   -1.0908 H         1 MOL         0.0431
     16 H7         -1.1940   -0.6045    2.8030 H         1 MOL         0.0433
     17 H8         -0.1081    0.5373    3.6326 H         1 MOL         0.0433
     18 H9         -0.8092    0.9749    2.0756 H         1 MOL         0.0433
     19 H10         2.2659   -0.2215    4.5769 H         1 MOL         0.0436
     20 H11         0.7470   -1.1508    4.5477 H         1 MOL         0.0436
     21 H12         2.2905   -2.0022    4.5529 H         1 MOL         0.0436
@<TRIPOS>BOND
     1    1    2 ar
     2    1    4 ar
     3    2    5 ar
     4    3    4 ar
     5    3    6 ar
     6    4    7 1
     7    5    6 ar
     8    5    8 1
     9    6    9 1
    10    1   10 1
    11    2   11 1
    12    3   12 1
    13    7   13 1
    14    7   14 1
    15    7   15 1
    16    8   16 1
    17    8   17 1
    18    8   18 1
    19    9   19 1
    20    9   20 1
    21    9   21 1
