@<TRIPOS>MOLECULE
1-cyclohexylethanone
   23    23     0     0     0
SMALL
USER_CHARGES

@<TRIPOS>ATOM
      1 C1          0.7296   -0.4754   -0.6707 C.2       1 MOL         0.5666
      2 C2          2.9486   -3.1872   -2.0644 C.3       1 MOL        -0.0769
      3 C3          2.3702   -2.0527   -2.9021 C.3       1 MOL        -0.0790
      4 C4          2.5978   -3.0262   -0.5898 C.3       1 MOL        -0.0790
      5 C5          0.8603   -1.9147   -2.7094 C.3       1 MOL        -0.0657
      6 C6          1.0887   -2.9170   -0.3777 C.3       1 MOL        -0.0657
      7 C7          0.4389   -1.8334   -1.2408 C.3       1 MOL        -0.1577
      8 C8          0.3143   -0.2373    0.7559 C.3       1 MOL        -0.2035
      9 O1          1.2820    0.3991   -1.3364 O.2       1 MOL        -0.5358
     10 H1          2.5626   -4.1465   -2.4306 H         1 MOL         0.0395
     11 H2          4.0376   -3.2147   -2.1833 H         1 MOL         0.0395
     12 H3          2.8627   -1.1113   -2.6301 H         1 MOL         0.0461
     13 H4          2.5895   -2.2283   -3.9615 H         1 MOL         0.0461
     14 H5          2.9829   -3.8843   -0.0269 H         1 MOL         0.0461
     15 H6          3.0980   -2.1374   -0.1875 H         1 MOL         0.0461
     16 H7          0.5073   -1.0336   -3.2590 H         1 MOL         0.0454
     17 H8          0.3717   -2.7858   -3.1648 H         1 MOL         0.0454
     18 H9          0.6300   -3.8836   -0.6225 H         1 MOL         0.0454
     19 H10         0.8872   -2.7313    0.6843 H         1 MOL         0.0454
     20 H11        -0.6504   -1.9512   -1.1799 H         1 MOL         0.0644
     21 H12         1.1317   -0.5113    1.4286 H         1 MOL         0.0624
     22 H13        -0.5580   -0.8522    0.9909 H         1 MOL         0.0624
     23 H14         0.0795    0.8205    0.8975 H         1 MOL         0.0624
@<TRIPOS>BOND
     1    1    7 1
     2    1    8 1
     3    1    9 2
     4    2    3 1
     5    2    4 1
     6    3    5 1
     7    4    6 1
     8    5    7 1
     9    6    7 1
    10    2   10 1
    11    2   11 1
    12    3   12 1
    13    3   13 1
    14    4   14 1
    15    4   15 1
    16    5   16 1
    17    5   17 1
    18    6   18 1
    19    6   19 1
    20    7   20 1
    21    8   21 1
    22    8   22 1
    23    8   23 1
