@<TRIPOS>MOLECULE
2-hydroxybenzaldehyde
   15    15     0     0     0
SMALL
USER_CHARGES

@<TRIPOS>ATOM
      1 C1          1.8851   -1.0363   -0.1124 C.ar      1 MOL        -0.1769
      2 C2          0.8066   -0.4630    0.5610 C.ar      1 MOL        -0.0691
      3 C3          2.9210   -1.6309    0.6081 C.ar      1 MOL        -0.0420
      4 C4          0.7638   -0.4841    1.9551 C.ar      1 MOL        -0.1713
      5 C5          2.8783   -1.6520    2.0022 C.ar      1 MOL        -0.2744
      6 C6          1.7997   -1.0786    2.6757 C.ar      1 MOL         0.1686
      7 C7          3.9701   -2.2777    2.7351 C.2       1 MOL         0.5764
      8 O1          4.0061   -2.3365    3.9662 O.2       1 MOL        -0.5154
      9 O2          1.7389   -1.0910    4.0373 O.3       1 MOL        -0.4915
     10 H1          1.9181   -1.0197   -1.1981 H         1 MOL         0.1404
     11 H2          0.0007    0.0002   -0.0006 H         1 MOL         0.1396
     12 H3          3.7563   -2.0749    0.0727 H         1 MOL         0.1528
     13 H4         -0.0794   -0.0358    2.4735 H         1 MOL         0.1550
     14 H5          4.7989   -2.7157    2.1389 H         1 MOL        -0.0137
     15 H6          2.5206   -1.5337    4.4029 H         1 MOL         0.4216
@<TRIPOS>BOND
     1    1    2 ar
     2    1    3 ar
     3    2    4 ar
     4    3    5 ar
     5    4    6 ar
     6    5    6 ar
     7    5    7 1
     8    6    9 1
     9    7    8 2
    10    1   10 1
    11    2   11 1
    12    3   12 1
    13    4   13 1
    14    7   14 1
    15    9   15 1
