@<TRIPOS>MOLECULE
(Z)-1,2-dichloroethylene
    6     5     0     0     0
SMALL
USER_CHARGES

@<TRIPOS>ATOM
      1 C1          0.6316   -0.0857    0.1906 C.2       1 MOL        -0.0738
      2 C2         -0.6314    0.0855   -0.1906 C.2       1 MOL        -0.0738
      3 Cl1         1.2348    0.5015    1.6820 Cl        1 MOL        -0.0868
      4 Cl2        -1.7843    0.9104    0.7704 Cl        1 MOL        -0.0868
      5 H1          1.3862   -0.6008   -0.3889 H         1 MOL         0.1606
      6 H2         -1.0474   -0.2710   -1.1234 H         1 MOL         0.1606
@<TRIPOS>BOND
     1    1    2 2
     2    1    3 1
     3    2    4 1
     4    1    5 1
     5    2    6 1
