@<TRIPOS>MOLECULE
3-chloroprop-1-ene
    9     8     0     0     0
SMALL
USER_CHARGES

@<TRIPOS>ATOM
      1 C1         -0.3495    1.3198    0.4079 C.2       1 MOL        -0.1964
      2 C2         -0.3587   -0.0178    0.4246 C.2       1 MOL        -0.1826
      3 C3          0.3237   -0.8666   -0.5954 C.3       1 MOL         0.0682
      4 Cl1         1.5185   -1.9185    0.1927 Cl        1 MOL        -0.1934
      5 H1         -0.8716    1.8824    1.1742 H         1 MOL         0.1162
      6 H2          0.1752    1.8742   -0.3623 H         1 MOL         0.1162
      7 H3         -0.9069   -0.5227    1.2161 H         1 MOL         0.1339
      8 H4         -0.4050   -1.5045   -1.1039 H         1 MOL         0.0690
      9 H5          0.8482   -0.2723   -1.3497 H         1 MOL         0.0690
@<TRIPOS>BOND
     1    1    2 2
     2    2    3 1
     3    3    4 1
     4    1    5 1
     5    1    6 1
     6    2    7 1
     7    3    8 1
     8    3    9 1
