@<TRIPOS>MOLECULE
[2-(dimethylamino)-5,6-dimethyl-pyrimidin-4-yl] N,N-dimethylcarbamate
   35    35     0     0     0
SMALL
USER_CHARGES

@<TRIPOS>ATOM
      1 C1          4.1119   -2.6614    1.7097 C.ar      1 MOL        -0.3791
      2 C2          4.9009   -3.7665    1.4635 C.ar      1 MOL         0.4997
      3 C3          2.9871   -2.8897    2.4759 C.ar      1 MOL         0.6993
      4 C4          3.4987   -5.0969    2.6597 C.ar      1 MOL         0.9065
      5 C5          0.8170   -2.0076    2.3171 C.2       1 MOL         0.7519
      6 C6          4.4470   -1.3105    1.1860 C.3       1 MOL        -0.0381
      7 C7          6.1440   -3.6408    0.6457 C.3       1 MOL        -0.1556
      8 C8          4.0331   -7.5109    2.8768 C.3       1 MOL         0.2201
      9 C9          1.9926   -6.5700    3.9719 C.3       1 MOL         0.2201
     10 C10        -1.4131   -0.9372    2.2386 C.3       1 MOL         0.0901
     11 C11         0.4332    0.2467    3.3804 C.3       1 MOL         0.0901
     12 N1          4.6231   -5.0037    1.9246 N.ar      1 MOL        -0.7629
     13 N2          2.6487   -4.0992    2.9690 N.ar      1 MOL        -0.7441
     14 N3          3.1763   -6.3776    3.1593 N.pl3     1 MOL        -0.7768
     15 N4         -0.0137   -0.9289    2.6401 N.am      1 MOL        -0.4642
     16 O1          0.4480   -3.0038    1.6961 O.2       1 MOL        -0.5528
     17 O2          2.1245   -1.8313    2.7795 O.3       1 MOL        -0.4829
     18 H1          3.9931   -1.1559    0.1978 H         1 MOL         0.0465
     19 H2          4.0880   -0.5178    1.8576 H         1 MOL         0.0465
     20 H3          5.5337   -1.1736    1.0912 H         1 MOL         0.0465
     21 H4          7.0012   -3.4126    1.2898 H         1 MOL         0.0587
     22 H5          6.3547   -4.5684    0.0992 H         1 MOL         0.0587
     23 H6          6.0474   -2.8444   -0.1028 H         1 MOL         0.0587
     24 H7          3.6279   -8.4134    3.3418 H         1 MOL         0.0447
     25 H8          5.0375   -7.3328    3.2703 H         1 MOL         0.0447
     26 H9          4.1030   -7.6721    1.7977 H         1 MOL         0.0447
     27 H10         1.9054   -7.6191    4.2663 H         1 MOL         0.0447
     28 H11         1.0984   -6.2867    3.4101 H         1 MOL         0.0447
     29 H12         2.0492   -5.9549    4.8740 H         1 MOL         0.0447
     30 H13        -2.0251   -1.3972    3.0187 H         1 MOL         0.0491
     31 H14        -1.5373   -1.5056    1.3128 H         1 MOL         0.0491
     32 H15        -1.7646    0.0847    2.0723 H         1 MOL         0.0491
     33 H16         0.8015    1.0087    2.6886 H         1 MOL         0.0491
     34 H17         1.2392   -0.0235    4.0680 H         1 MOL         0.0491
     35 H18        -0.3945    0.6666    3.9583 H         1 MOL         0.0491
@<TRIPOS>BOND
     1    1    2 ar
     2    1    3 ar
     3    1    6 1
     4    2    7 1
     5    2   12 ar
     6    3   13 ar
     7    3   17 1
     8    4   12 ar
     9    4   13 ar
    10    4   14 1
    11    5   15 am
    12    5   16 2
    13    5   17 1
    14    8   14 1
    15    9   14 1
    16   10   15 1
    17   11   15 1
    18    6   18 1
    19    6   19 1
    20    6   20 1
    21    7   21 1
    22    7   22 1
    23    7   23 1
    24    8   24 1
    25    8   25 1
    26    8   26 1
    27    9   27 1
    28    9   28 1
    29    9   29 1
    30   10   30 1
    31   10   31 1
    32   10   32 1
    33   11   33 1
    34   11   34 1
    35   11   35 1
