@<TRIPOS>MOLECULE
1-(p-tolyl)ethanone
   20    20     0     0     0
SMALL
USER_CHARGES

@<TRIPOS>ATOM
      1 C1          1.8851   -1.0363   -0.1124 C.ar      1 MOL        -0.0922
      2 C2          2.8783   -1.6520    2.0022 C.ar      1 MOL        -0.0922
      3 C3          0.8066   -0.4630    0.5610 C.ar      1 MOL        -0.1361
      4 C4          1.7997   -1.0786    2.6757 C.ar      1 MOL        -0.1361
      5 C5          2.9210   -1.6309    0.6081 C.ar      1 MOL        -0.1689
      6 C6          0.7638   -0.4841    1.9551 C.ar      1 MOL        -0.0590
      7 C7          4.0464   -2.2285   -0.0930 C.2       1 MOL         0.5776
      8 C8         -0.3892    0.1300    2.6748 C.3       1 MOL        -0.0584
      9 C9          3.7885   -2.8025   -1.4559 C.3       1 MOL        -0.1982
     10 O1          5.1947   -2.3037    0.3489 O.2       1 MOL        -0.5228
     11 H1          1.9089   -1.0145   -1.1989 H         1 MOL         0.1383
     12 H2          3.6797   -2.1125    2.5740 H         1 MOL         0.1383
     13 H3          0.0041   -0.0017   -0.0084 H         1 MOL         0.1358
     14 H4          1.7748   -1.0992    3.7621 H         1 MOL         0.1358
     15 H5         -1.1815   -0.6123    2.8301 H         1 MOL         0.0475
     16 H6         -0.0843    0.5235    3.6531 H         1 MOL         0.0475
     17 H7         -0.8079    0.9731    2.1098 H         1 MOL         0.0475
     18 H8          3.9260   -2.0819   -2.2775 H         1 MOL         0.0652
     19 H9          2.7810   -3.2342   -1.5605 H         1 MOL         0.0652
     20 H10         4.4716   -3.6306   -1.7161 H         1 MOL         0.0652
@<TRIPOS>BOND
     1    1    3 ar
     2    1    5 ar
     3    2    4 ar
     4    2    5 ar
     5    3    6 ar
     6    4    6 ar
     7    5    7 1
     8    6    8 1
     9    7    9 1
    10    7   10 2
    11    1   11 1
    12    2   12 1
    13    3   13 1
    14    4   14 1
    15    8   15 1
    16    8   16 1
    17    8   17 1
    18    9   18 1
    19    9   19 1
    20    9   20 1
