@<TRIPOS>MOLECULE
1,3-dimethylnaphthalene
   24    25     0     0     0
SMALL
USER_CHARGES

@<TRIPOS>ATOM
      1 C1         -0.4966   -2.0341    0.4940 C.ar      1 MOL        -0.1272
      2 C2          0.3500   -1.0275    0.0392 C.ar      1 MOL        -0.1316
      3 C3         -0.0479   -3.3542    0.5448 C.ar      1 MOL        -0.1193
      4 C4          1.6484   -1.3369   -0.3665 C.ar      1 MOL        -0.1173
      5 C5          1.7243   -5.0072    0.1848 C.ar      1 MOL        -0.1262
      6 C6          3.8693   -4.3100   -0.6758 C.ar      1 MOL        -0.1303
      7 C7          1.2560   -3.6839    0.1403 C.ar      1 MOL        -0.0294
      8 C8          2.1168   -2.6602   -0.3222 C.ar      1 MOL        -0.0345
      9 C9          3.0228   -5.3167   -0.2210 C.ar      1 MOL        -0.0699
     10 C10         3.4207   -2.9899   -0.7267 C.ar      1 MOL        -0.0614
     11 C11         3.5033   -6.7276   -0.1671 C.3       1 MOL        -0.0541
     12 C12         4.3821   -1.9565   -1.2266 C.3       1 MOL        -0.0562
     13 H1         -1.5075   -1.7931    0.8096 H         1 MOL         0.1306
     14 H2          0.0001    0.0001    0.0011 H         1 MOL         0.1310
     15 H3         -0.7269   -4.1247    0.9042 H         1 MOL         0.1312
     16 H4          2.2794   -0.5227   -0.7152 H         1 MOL         0.1323
     17 H5          1.0727   -5.8042    0.5390 H         1 MOL         0.1318
     18 H6          4.8809   -4.5542   -0.9922 H         1 MOL         0.1312
     19 H7          3.2903   -7.2400   -1.1133 H         1 MOL         0.0444
     20 H8          4.5844   -6.7735    0.0177 H         1 MOL         0.0444
     21 H9          3.0182   -7.2828    0.6462 H         1 MOL         0.0444
     22 H10         4.2870   -1.8484   -2.3119 H         1 MOL         0.0453
     23 H11         4.1930   -0.9848   -0.7572 H         1 MOL         0.0453
     24 H12         5.4151   -2.2339   -0.9887 H         1 MOL         0.0453
@<TRIPOS>BOND
     1    1    2 ar
     2    1    3 ar
     3    2    4 ar
     4    3    7 ar
     5    4    8 ar
     6    5    7 ar
     7    5    9 ar
     8    6    9 ar
     9    6   10 ar
    10    7    8 ar
    11    8   10 ar
    12    9   11 1
    13   10   12 1
    14    1   13 1
    15    2   14 1
    16    3   15 1
    17    4   16 1
    18    5   17 1
    19    6   18 1
    20   11   19 1
    21   11   20 1
    22   11   21 1
    23   12   22 1
    24   12   23 1
    25   12   24 1
