@<TRIPOS>MOLECULE
isobutylbenzene
   24    24     0     0     0
SMALL
USER_CHARGES

@<TRIPOS>ATOM
      1 C1         -2.3920    3.1789   -2.1108 C.ar      1 MOL        -0.1334
      2 C2         -1.0199    2.9555   -1.9968 C.ar      1 MOL        -0.1292
      3 C3         -3.2117    3.0728   -0.9871 C.ar      1 MOL        -0.1292
      4 C4         -0.4675    2.6259   -0.7591 C.ar      1 MOL        -0.1279
      5 C5         -2.6592    2.7431    0.2505 C.ar      1 MOL        -0.1279
      6 C6         -1.2871    2.5197    0.3646 C.ar      1 MOL        -0.0749
      7 C7          0.1917   -0.1014    0.9400 C.3       1 MOL        -0.0921
      8 C8         -0.0721    0.3940    3.3790 C.3       1 MOL        -0.0921
      9 C9         -0.6900    2.1628    1.7040 C.3       1 MOL        -0.0337
     10 C10        -0.6434    0.6475    1.9816 C.3       1 MOL        -0.0631
     11 H1         -2.8218    3.4369   -3.0743 H         1 MOL         0.1294
     12 H2         -0.3814    3.0392   -2.8713 H         1 MOL         0.1302
     13 H3         -4.2798    3.2477   -1.0753 H         1 MOL         0.1302
     14 H4          0.6027    2.4534   -0.6797 H         1 MOL         0.1305
     15 H5         -3.3056    2.6625    1.1205 H         1 MOL         0.1305
     16 H6          1.2232    0.2664    0.9185 H         1 MOL         0.0348
     17 H7         -0.2307    0.0093   -0.0635 H         1 MOL         0.0348
     18 H8          0.2207   -1.1732    1.1646 H         1 MOL         0.0348
     19 H9          0.9483    0.7835    3.4589 H         1 MOL         0.0348
     20 H10        -0.6808    0.8772    4.1511 H         1 MOL         0.0348
     21 H11        -0.0367   -0.6787    3.5963 H         1 MOL         0.0348
     22 H12         0.3182    2.5893    1.7889 H         1 MOL         0.0473
     23 H13        -1.2868    2.6637    2.4783 H         1 MOL         0.0473
     24 H14        -1.6618    0.2391    1.9586 H         1 MOL         0.0493
@<TRIPOS>BOND
     1    1    2 ar
     2    1    3 ar
     3    2    4 ar
     4    3    5 ar
     5    4    6 ar
     6    5    6 ar
     7    6    9 1
     8    7   10 1
     9    8   10 1
    10    9   10 1
    11    1   11 1
    12    2   12 1
    13    3   13 1
    14    4   14 1
    15    5   15 1
    16    7   16 1
    17    7   17 1
    18    7   18 1
    19    8   19 1
    20    8   20 1
    21    8   21 1
    22    9   22 1
    23    9   23 1
    24   10   24 1
