@<TRIPOS>MOLECULE
5-bromo-6-methyl-3-[(1S)-1-methylpropyl]-1H-pyrimidine-2,4-dione
   27    27     0     0     0
SMALL
USER_CHARGES

@<TRIPOS>ATOM
      1 C1         -6.1581   -4.1532   -5.6719 C.2       1 MOL        -0.2530
      2 C2         -5.1909   -5.0726   -5.5076 C.2       1 MOL         0.1389
      3 C3         -6.1433   -2.9103   -4.8322 C.2       1 MOL         0.7285
      4 C4         -4.0769   -3.7812   -3.7548 C.2       1 MOL         0.8100
      5 C5         -5.0650   -6.3658   -6.2671 C.3       1 MOL        -0.0933
      6 C6         -3.5473   -0.4233   -4.7806 C.3       1 MOL        -0.0936
      7 C7         -5.1497   -2.0109   -1.6147 C.3       1 MOL        -0.1134
      8 C8         -3.7212   -0.8374   -3.3250 C.3       1 MOL        -0.0998
      9 C9         -5.0194   -1.6180   -3.0826 C.3       1 MOL         0.1071
     10 N1         -4.1936   -4.8833   -4.5806 N.am      1 MOL        -0.4667
     11 N2         -5.0836   -2.8109   -3.9199 N.am      1 MOL        -0.4787
     12 O1         -7.0191   -2.0547   -4.9620 O.2       1 MOL        -0.5916
     13 O2         -3.1486   -3.6911   -2.9477 O.2       1 MOL        -0.6378
     14 Br1        -7.5655   -4.3017   -6.9006 Br        1 MOL        -0.0088
     15 H1         -4.4654   -6.2009   -7.1574 H         1 MOL         0.0736
     16 H2         -6.0547   -6.7140   -6.5484 H         1 MOL         0.0736
     17 H3         -4.5880   -7.1080   -5.6335 H         1 MOL         0.0736
     18 H4         -4.3795    0.2000   -5.1215 H         1 MOL         0.0358
     19 H5         -2.6254    0.1549   -4.8995 H         1 MOL         0.0358
     20 H6         -3.4830   -1.3004   -5.4324 H         1 MOL         0.0358
     21 H7         -4.3076   -2.6355   -1.2996 H         1 MOL         0.0509
     22 H8         -5.1819   -1.1268   -0.9680 H         1 MOL         0.0509
     23 H9         -6.0725   -2.5765   -1.4444 H         1 MOL         0.0509
     24 H10        -2.8629   -1.4571   -3.0380 H         1 MOL         0.0605
     25 H11        -3.6949    0.0603   -2.6949 H         1 MOL         0.0605
     26 H12        -5.8784   -0.9955   -3.3588 H         1 MOL         0.0959
     27 H13        -3.4879   -5.6100   -4.4961 H         1 MOL         0.3546
@<TRIPOS>BOND
     1    1    2 2
     2    1    3 1
     3    1   14 1
     4    2    5 1
     5    2   10 1
     6    3   11 am
     7    3   12 2
     8    4   10 am
     9    4   11 am
    10    4   13 2
    11    6    8 1
    12    7    9 1
    13    8    9 1
    14    9   11 1
    15    5   15 1
    16    5   16 1
    17    5   17 1
    18    6   18 1
    19    6   19 1
    20    6   20 1
    21    7   21 1
    22    7   22 1
    23    7   23 1
    24    8   24 1
    25    8   25 1
    26    9   26 1
    27   10   27 1
