@<TRIPOS>MOLECULE
ethylsulfanylethane
   15    14     0     0     0
SMALL
USER_CHARGES

@<TRIPOS>ATOM
      1 C1          0.5033   -0.3033    1.1381 C.3       1 MOL        -0.0845
      2 C2          5.4936    0.2991   -0.8463 C.3       1 MOL        -0.0844
      3 C3          1.8518   -0.8681    0.7340 C.3       1 MOL        -0.0083
      4 C4          4.3832   -0.5607   -0.2730 C.3       1 MOL        -0.0083
      5 S1          2.9258    0.4446    0.0921 S.3       1 MOL        -0.3126
      6 H1          0.6047    0.4638    1.9134 H         1 MOL         0.0456
      7 H2         -0.0229    0.1334    0.2826 H         1 MOL         0.0456
      8 H3         -0.1285   -1.1009    1.5431 H         1 MOL         0.0456
      9 H4          5.1811    0.7950   -1.7715 H         1 MOL         0.0456
     10 H5          5.8189    1.0644   -0.1335 H         1 MOL         0.0456
     11 H6          6.3628   -0.3238   -1.0826 H         1 MOL         0.0456
     12 H7          1.7267   -1.6313   -0.0402 H         1 MOL         0.0561
     13 H8          2.3409   -1.3340    1.5948 H         1 MOL         0.0561
     14 H9          4.7169   -1.0457    0.6494 H         1 MOL         0.0561
     15 H10         4.1025   -1.3421   -0.9856 H         1 MOL         0.0561
@<TRIPOS>BOND
     1    1    3 1
     2    2    4 1
     3    3    5 1
     4    4    5 1
     5    1    6 1
     6    1    7 1
     7    1    8 1
     8    2    9 1
     9    2   10 1
    10    2   11 1
    11    3   12 1
    12    3   13 1
    13    4   14 1
    14    4   15 1
