@<TRIPOS>MOLECULE
3,5-dimethylphenol
   19    19     0     0     0
SMALL
USER_CHARGES

@<TRIPOS>ATOM
      1 C1          1.8851   -1.0363   -0.1124 C.ar      1 MOL        -0.1662
      2 C2          0.7638   -0.4841    1.9551 C.ar      1 MOL        -0.1918
      3 C3          2.8783   -1.6520    2.0022 C.ar      1 MOL        -0.1918
      4 C4          0.8066   -0.4630    0.5610 C.ar      1 MOL        -0.0381
      5 C5          2.9210   -1.6309    0.6081 C.ar      1 MOL        -0.0381
      6 C6          1.7997   -1.0786    2.6757 C.ar      1 MOL         0.1311
      7 C7         -0.3008    0.1719   -0.2102 C.3       1 MOL        -0.0566
      8 C8          4.0740   -2.2445   -0.1114 C.3       1 MOL        -0.0566
      9 O1          1.7578   -1.0997    4.0361 O.3       1 MOL        -0.4993
     10 H1          1.9188   -1.0197   -1.1994 H         1 MOL         0.1341
     11 H2         -0.0762   -0.0392    2.4830 H         1 MOL         0.1401
     12 H3          3.6839   -2.1158    2.5664 H         1 MOL         0.1401
     13 H4         -1.0807   -0.5656   -0.4362 H         1 MOL         0.0458
     14 H5         -0.7555    0.9978    0.3521 H         1 MOL         0.0458
     15 H6          0.0633    0.5943   -1.1559 H         1 MOL         0.0458
     16 H7          4.8662   -1.5019   -0.2672 H         1 MOL         0.0458
     17 H8          4.4936   -3.0872    0.4535 H         1 MOL         0.0458
     18 H9          3.7693   -2.6386   -1.0897 H         1 MOL         0.0458
     19 H10         0.9506   -0.6650    4.3543 H         1 MOL         0.4183
@<TRIPOS>BOND
     1    1    4 ar
     2    1    5 ar
     3    2    4 ar
     4    2    6 ar
     5    3    5 ar
     6    3    6 ar
     7    4    7 1
     8    5    8 1
     9    6    9 1
    10    1   10 1
    11    2   11 1
    12    3   12 1
    13    7   13 1
    14    7   14 1
    15    7   15 1
    16    8   16 1
    17    8   17 1
    18    8   18 1
    19    9   19 1
