@<TRIPOS>MOLECULE
2,6-dichloro-4-hydroxy-3,5-dimethoxy-benzaldehyde
   23    23     0     0     0
SMALL
USER_CHARGES

@<TRIPOS>ATOM
      1 C1          1.8851   -1.0363   -0.1124 C.ar      1 MOL        -0.2007
      2 C2          1.7997   -1.0786    2.6757 C.ar      1 MOL         0.1391
      3 C3          0.7638   -0.4841    1.9551 C.ar      1 MOL         0.0363
      4 C4          2.8783   -1.6520    2.0022 C.ar      1 MOL         0.0363
      5 C5          0.8066   -0.4630    0.5610 C.ar      1 MOL         0.0672
      6 C6          2.9210   -1.6309    0.6081 C.ar      1 MOL         0.0672
      7 C7          1.9298   -1.0152   -1.5743 C.2       1 MOL         0.5868
      8 C8         -0.1653    1.4458    2.9884 C.3       1 MOL         0.1089
      9 C9          4.9700   -1.3910    3.1034 C.3       1 MOL         0.1089
     10 O1          1.9296    0.0280   -2.2251 O.2       1 MOL        -0.4878
     11 O2          1.7576   -1.1000    4.0387 O.3       1 MOL        -0.4669
     12 O3         -0.2832    0.0711    2.6321 O.3       1 MOL        -0.3256
     13 O4          3.8816   -2.2296    2.7250 O.3       1 MOL        -0.3256
     14 Cl1        -0.4909    0.2796   -0.3165 Cl        1 MOL        -0.0467
     15 Cl2         4.2695   -2.3500   -0.2102 Cl        1 MOL        -0.0467
     16 H1          1.9644   -1.9949   -2.0908 H         1 MOL         0.0154
     17 H2         -1.0646    1.7632    3.5218 H         1 MOL         0.0491
     18 H3         -0.0331    2.0472    2.0854 H         1 MOL         0.0491
     19 H4          0.7043    1.5714    3.6379 H         1 MOL         0.0491
     20 H5          5.6984   -1.9731    3.6732 H         1 MOL         0.0491
     21 H6          4.5979   -0.5604    3.7084 H         1 MOL         0.0491
     22 H7          5.4460   -0.9980    2.2019 H         1 MOL         0.0491
     23 H8          2.5442   -1.5450    4.3898 H         1 MOL         0.4394
@<TRIPOS>BOND
     1    1    5 ar
     2    1    6 ar
     3    1    7 1
     4    2    3 ar
     5    2    4 ar
     6    2   11 1
     7    3    5 ar
     8    3   12 1
     9    4    6 ar
    10    4   13 1
    11    5   14 1
    12    6   15 1
    13    7   10 2
    14    8   12 1
    15    9   13 1
    16    7   16 1
    17    8   17 1
    18    8   18 1
    19    8   19 1
    20    9   20 1
    21    9   21 1
    22    9   22 1
    23   11   23 1
