@<TRIPOS>MOLECULE
(1R,2S,5R)-2-isopropyl-5-methyl-cyclohexanol
   31    31     0     0     0
SMALL
USER_CHARGES

@<TRIPOS>ATOM
      1 C1          0.9445    0.3348    0.4454 C.3       1 MOL        -0.0755
      2 C2          1.1545    1.8131    0.1249 C.3       1 MOL        -0.0779
      3 C3          2.2039    0.6223    2.6097 C.3       1 MOL        -0.1098
      4 C4          0.9280    0.0809    1.9574 C.3       1 MOL        -0.0617
      5 C5          2.4292    2.3633    0.7777 C.3       1 MOL        -0.0490
      6 C6          2.4235    2.1034    2.2931 C.3       1 MOL         0.1431
      7 C7          0.7606   -1.4084    2.2528 C.3       1 MOL        -0.0901
      8 C8          2.7083    4.0758   -1.0368 C.3       1 MOL        -0.0893
      9 C9          1.4044    4.6407    1.0331 C.3       1 MOL        -0.0893
     10 C10         2.5831    3.8547    0.4675 C.3       1 MOL        -0.0649
     11 O1          3.6723    2.5114    2.8465 O.3       1 MOL        -0.6005
     12 H1          0.0002   -0.0001   -0.0004 H         1 MOL         0.0413
     13 H2          1.7432   -0.2532   -0.0245 H         1 MOL         0.0413
     14 H3          1.2067    1.9402   -0.9631 H         1 MOL         0.0441
     15 H4          0.2826    2.3841    0.4687 H         1 MOL         0.0441
     16 H5          2.1613    0.4862    3.6980 H         1 MOL         0.0461
     17 H6          3.0764    0.0439    2.2762 H         1 MOL         0.0461
     18 H7          0.0671    0.6091    2.3887 H         1 MOL         0.0470
     19 H8          3.2993    1.8550    0.3418 H         1 MOL         0.0613
     20 H9          1.6350    2.6979    2.7723 H         1 MOL         0.0333
     21 H10         1.6000   -1.9636    1.8375 H         1 MOL         0.0345
     22 H11        -0.1634   -1.7716    1.8058 H         1 MOL         0.0345
     23 H12         0.7238   -1.5693    3.3290 H         1 MOL         0.0345
     24 H13         1.8120    3.7356   -1.5668 H         1 MOL         0.0323
     25 H14         3.5678    3.5307   -1.4409 H         1 MOL         0.0323
     26 H15         2.8508    5.1384   -1.2599 H         1 MOL         0.0323
     27 H16         0.4582    4.3222    0.5823 H         1 MOL         0.0323
     28 H17         1.5273    5.7119    0.8415 H         1 MOL         0.0323
     29 H18         1.3267    4.5015    2.1166 H         1 MOL         0.0323
     30 H19         3.5009    4.2098    0.9488 H         1 MOL         0.0663
     31 H20         3.6126    2.3621    3.8028 H         1 MOL         0.3967
@<TRIPOS>BOND
     1    1    2 1
     2    1    4 1
     3    2    5 1
     4    3    4 1
     5    3    6 1
     6    4    7 1
     7    5    6 1
     8    5   10 1
     9    6   11 1
    10    8   10 1
    11    9   10 1
    12    1   12 1
    13    1   13 1
    14    2   14 1
    15    2   15 1
    16    3   16 1
    17    3   17 1
    18    4   18 1
    19    5   19 1
    20    6   20 1
    21    7   21 1
    22    7   22 1
    23    7   23 1
    24    8   24 1
    25    8   25 1
    26    8   26 1
    27    9   27 1
    28    9   28 1
    29    9   29 1
    30   10   30 1
    31   11   31 1
