@<TRIPOS>MOLECULE
2-methylpropanal
   13    12     0     0     0
SMALL
USER_CHARGES

@<TRIPOS>ATOM
      1 C1         -2.1993    0.5040    1.5020 C.2       1 MOL         0.5666
      2 C2         -0.4393   -0.8920    0.4598 C.3       1 MOL        -0.0863
      3 C3         -2.5622   -1.9747    1.2574 C.3       1 MOL        -0.0863
      4 C4         -1.9421   -0.7229    0.6486 C.3       1 MOL        -0.1833
      5 O1         -2.8146    0.4990    2.5633 O.2       1 MOL        -0.5214
      6 H1         -1.8235    1.4547    1.0842 H         1 MOL        -0.0089
      7 H2          0.0562   -1.0841    1.4177 H         1 MOL         0.0421
      8 H3          0.0045    0.0098    0.0256 H         1 MOL         0.0421
      9 H4         -0.2147   -1.7372   -0.2004 H         1 MOL         0.0421
     10 H5         -2.1198   -2.1938    2.2347 H         1 MOL         0.0421
     11 H6         -2.3991   -2.8444    0.6115 H         1 MOL         0.0421
     12 H7         -3.6438   -1.8602    1.3902 H         1 MOL         0.0421
     13 H8         -2.4061   -0.5326   -0.3263 H         1 MOL         0.0667
@<TRIPOS>BOND
     1    1    4 1
     2    1    5 2
     3    2    4 1
     4    3    4 1
     5    1    6 1
     6    2    7 1
     7    2    8 1
     8    2    9 1
     9    3   10 1
    10    3   11 1
    11    3   12 1
    12    4   13 1
