@<TRIPOS>MOLECULE
diethoxy-(2-isopropyl-6-methyl-pyrimidin-4-yl)oxy-thioxo-$l^{5}-phosphane
   40    40     0     0     0
SMALL
USER_CHARGES

@<TRIPOS>ATOM
      1 C1         -1.2719    0.2334   -5.8983 C.ar      1 MOL        -0.4069
      2 C2         -2.1820    0.0861   -6.9252 C.ar      1 MOL         0.4780
      3 C3         -1.7272   -0.1140   -4.6428 C.ar      1 MOL         0.6919
      4 C4         -3.7656   -0.6705   -5.4807 C.ar      1 MOL         0.6825
      5 C5         -1.7810    0.4365   -8.3187 C.3       1 MOL        -0.1587
      6 C6         -4.0010    1.9486   -0.4361 C.3       1 MOL        -0.0966
      7 C7          2.2228    0.8890   -0.6127 C.3       1 MOL        -0.0966
      8 C8         -5.9666   -0.2458   -4.3279 C.3       1 MOL        -0.0924
      9 C9         -5.1710   -2.6097   -4.6942 C.3       1 MOL        -0.0924
     10 C10        -2.8227    0.9984   -0.4131 C.3       1 MOL         0.1517
     11 C11         1.3165    0.0447   -1.4830 C.3       1 MOL         0.1517
     12 C12        -5.1504   -1.1726   -5.2489 C.3       1 MOL        -0.0991
     13 N1         -3.4417   -0.3647   -6.7515 N.ar      1 MOL        -0.7045
     14 N2         -2.9726   -0.5711   -4.3969 N.ar      1 MOL        -0.6941
     15 O1         -0.8843    0.0037   -3.5707 O.3       1 MOL        -0.5812
     16 O2         -2.4744    0.6624   -1.7458 O.3       1 MOL        -0.5370
     17 O3         -0.0316    0.4002   -1.2271 O.3       1 MOL        -0.5370
     18 P1         -1.2319   -0.3520   -2.0276 P.3       1 MOL         1.2482
     19 S1         -1.5516   -2.2286   -1.6034 S.2       1 MOL        -0.5839
     20 H1         -0.2655    0.5976   -6.0636 H         1 MOL         0.1733
     21 H2         -1.3541   -0.4381   -8.8242 H         1 MOL         0.0634
     22 H3         -2.6398    0.7916   -8.9027 H         1 MOL         0.0634
     23 H4         -1.0356    1.2423   -8.3277 H         1 MOL         0.0634
     24 H5         -3.7509    2.8675   -0.9736 H         1 MOL         0.0544
     25 H6         -4.8650    1.4804   -0.9191 H         1 MOL         0.0544
     26 H7         -4.3076    2.2077    0.5827 H         1 MOL         0.0544
     27 H8          2.0946    1.9526   -0.8324 H         1 MOL         0.0544
     28 H9          2.0083    0.7186    0.4474 H         1 MOL         0.0544
     29 H10         3.2720    0.6192   -0.7725 H         1 MOL         0.0544
     30 H11        -5.4986   -0.1424   -3.3429 H         1 MOL         0.0452
     31 H12        -6.9824   -0.6262   -4.1749 H         1 MOL         0.0452
     32 H13        -6.0461    0.7552   -4.7664 H         1 MOL         0.0452
     33 H14        -4.6402   -2.6576   -3.7367 H         1 MOL         0.0452
     34 H15        -4.6863   -3.3116   -5.3815 H         1 MOL         0.0452
     35 H16        -6.1945   -2.9625   -4.5266 H         1 MOL         0.0452
     36 H17        -3.0795    0.0816    0.1259 H         1 MOL         0.0603
     37 H18        -1.9601    1.4680    0.0690 H         1 MOL         0.0603
     38 H19         1.4495   -1.0178   -1.2583 H         1 MOL         0.0603
     39 H20         1.5315    0.2168   -2.5419 H         1 MOL         0.0603
     40 H21        -5.7018   -1.2098   -6.2078 H         1 MOL         0.0747
@<TRIPOS>BOND
     1    1    2 ar
     2    1    3 ar
     3    2    5 1
     4    2   13 ar
     5    3   14 ar
     6    3   15 1
     7    4   12 1
     8    4   13 ar
     9    4   14 ar
    10    6   10 1
    11    7   11 1
    12    8   12 1
    13    9   12 1
    14   10   16 1
    15   11   17 1
    16   15   18 1
    17   16   18 1
    18   17   18 1
    19   18   19 2
    20    1   20 1
    21    5   21 1
    22    5   22 1
    23    5   23 1
    24    6   24 1
    25    6   25 1
    26    6   26 1
    27    7   27 1
    28    7   28 1
    29    7   29 1
    30    8   30 1
    31    8   31 1
    32    8   32 1
    33    9   33 1
    34    9   34 1
    35    9   35 1
    36   10   36 1
    37   10   37 1
    38   11   38 1
    39   11   39 1
    40   12   40 1
