@<TRIPOS>MOLECULE
2,3-dimethylpyridine
   17    17     0     0     0
SMALL
USER_CHARGES

@<TRIPOS>ATOM
      1 C1          0.2265   -0.4197    0.9733 C.ar      1 MOL        -0.2503
      2 C2          1.3879   -0.0684    1.6522 C.ar      1 MOL        -0.0953
      3 C3         -0.6317   -1.3224    1.5803 C.ar      1 MOL         0.3968
      4 C4          1.6520   -0.6227    2.8997 C.ar      1 MOL        -0.1908
      5 C5          0.7299   -1.5161    3.4206 C.ar      1 MOL         0.4144
      6 C6          2.8944   -0.2501    3.6321 C.3       1 MOL        -0.0497
      7 C7          0.9623   -2.1430    4.7564 C.3       1 MOL        -0.1486
      8 N1         -0.4092   -1.8816    2.7908 N.ar      1 MOL        -0.6707
      9 H1         -0.0016   -0.0005    0.0001 H         1 MOL         0.1419
     10 H2          2.0800    0.6378    1.2016 H         1 MOL         0.1356
     11 H3         -1.5508   -1.6293    1.0922 H         1 MOL         0.0205
     12 H4          2.7154    0.6235    4.2719 H         1 MOL         0.0458
     13 H5          3.2494   -1.0754    4.2641 H         1 MOL         0.0458
     14 H6          3.7113   -0.0097    2.9380 H         1 MOL         0.0458
     15 H7          0.5230   -1.5246    5.5476 H         1 MOL         0.0529
     16 H8          0.5169   -3.1441    4.8070 H         1 MOL         0.0529
     17 H9          2.0343   -2.2597    4.9580 H         1 MOL         0.0529
@<TRIPOS>BOND
     1    1    2 ar
     2    1    3 ar
     3    2    4 ar
     4    3    8 ar
     5    4    5 ar
     6    4    6 1
     7    5    7 1
     8    5    8 ar
     9    1    9 1
    10    2   10 1
    11    3   11 1
    12    6   12 1
    13    6   13 1
    14    6   14 1
    15    7   15 1
    16    7   16 1
    17    7   17 1
