@<TRIPOS>MOLECULE
1,1,1-trifluoro-2,2,2-trimethoxy-ethane
   20    19     0     0     0
SMALL
USER_CHARGES

@<TRIPOS>ATOM
      1 C1          1.2806    0.6403   -1.6563 C.3       1 MOL         0.1312
      2 C2         -1.3875    1.9846   -0.0111 C.3       1 MOL         0.1312
      3 C3         -1.2254   -2.0772    0.1517 C.3       1 MOL         0.1312
      4 C4         -0.0262    0.0275    0.2914 C.3       1 MOL         0.5155
      5 C5          1.1977   -0.3900    1.1155 C.3       1 MOL         0.6147
      6 O1          0.2069   -0.1192   -1.1209 O.3       1 MOL        -0.4363
      7 O2         -0.2737    1.4049    0.6567 O.3       1 MOL        -0.4363
      8 O3         -1.1603   -0.7686    0.6998 O.3       1 MOL        -0.4363
      9 F1          2.2744    0.3659    0.7993 F         1 MOL        -0.2279
     10 F2          1.5386   -1.6786    0.8863 F         1 MOL        -0.2279
     11 F3          0.9809   -0.2606    2.4422 F         1 MOL        -0.2279
     12 H1          1.3628    0.4503   -2.7293 H         1 MOL         0.0521
     13 H2          2.2107    0.3625   -1.1540 H         1 MOL         0.0521
     14 H3          1.0824    1.7019   -1.4908 H         1 MOL         0.0521
     15 H4         -1.5102    3.0203    0.3152 H         1 MOL         0.0521
     16 H5         -2.2892    1.4104    0.2164 H         1 MOL         0.0521
     17 H6         -1.2066    1.9634   -1.0884 H         1 MOL         0.0521
     18 H7         -2.1171   -2.5859    0.5259 H         1 MOL         0.0521
     19 H8         -0.3291   -2.6359    0.4328 H         1 MOL         0.0521
     20 H9         -1.2802   -2.0042   -0.9371 H         1 MOL         0.0521
@<TRIPOS>BOND
     1    1    6 1
     2    2    7 1
     3    3    8 1
     4    4    5 1
     5    4    6 1
     6    4    7 1
     7    4    8 1
     8    5    9 1
     9    5   10 1
    10    5   11 1
    11    1   12 1
    12    1   13 1
    13    1   14 1
    14    2   15 1
    15    2   16 1
    16    2   17 1
    17    3   18 1
    18    3   19 1
    19    3   20 1
