@<TRIPOS>MOLECULE
anisole
   16    16     0     0     0
SMALL
USER_CHARGES

@<TRIPOS>ATOM
      1 C1          1.8851   -1.0363   -0.1124 C.ar      1 MOL        -0.1641
      2 C2          0.8066   -0.4630    0.5610 C.ar      1 MOL        -0.0984
      3 C3          2.9210   -1.6309    0.6081 C.ar      1 MOL        -0.0984
      4 C4          0.7638   -0.4841    1.9551 C.ar      1 MOL        -0.1802
      5 C5          2.8783   -1.6520    2.0022 C.ar      1 MOL        -0.1802
      6 C6          1.7997   -1.0786    2.6757 C.ar      1 MOL         0.1234
      7 C7          0.6285   -0.4925    4.6608 C.3       1 MOL         0.1137
      8 O1          1.7593   -1.0981    4.0359 O.3       1 MOL        -0.3283
      9 H1          1.9184   -1.0206   -1.1979 H         1 MOL         0.1350
     10 H2         -0.0001    0.0001    0.0001 H         1 MOL         0.1300
     11 H3          3.7605   -2.0773    0.0830 H         1 MOL         0.1300
     12 H4         -0.0785   -0.0345    2.4737 H         1 MOL         0.1429
     13 H5          3.6889   -2.1149    2.5584 H         1 MOL         0.1429
     14 H6          0.7221   -0.5775    5.7462 H         1 MOL         0.0439
     15 H7         -0.2848   -0.9888    4.3231 H         1 MOL         0.0439
     16 H8          0.5915    0.5633    4.3821 H         1 MOL         0.0439
@<TRIPOS>BOND
     1    1    2 ar
     2    1    3 ar
     3    2    4 ar
     4    3    5 ar
     5    4    6 ar
     6    5    6 ar
     7    6    8 1
     8    7    8 1
     9    1    9 1
    10    2   10 1
    11    3   11 1
    12    4   12 1
    13    5   13 1
    14    7   14 1
    15    7   15 1
    16    7   16 1
