@<TRIPOS>MOLECULE
2-methylbutane
   17    16     0     0     0
SMALL
USER_CHARGES

@<TRIPOS>ATOM
      1 C1         -0.2303   -0.8989   -0.6919 C.3       1 MOL        -0.0915
      2 C2          2.6687   -1.6484   -1.3707 C.3       1 MOL        -0.0900
      3 C3          2.5201   -0.0904   -3.3235 C.3       1 MOL        -0.0900
      4 C4          0.4312   -0.6227   -2.0345 C.3       1 MOL        -0.0766
      5 C5          1.9539   -0.4226   -1.9410 C.3       1 MOL        -0.0666
      6 H1         -0.0096   -0.0869    0.0086 H         1 MOL         0.0325
      7 H2          0.1395   -1.8322   -0.2555 H         1 MOL         0.0325
      8 H3         -1.3179   -0.9661   -0.7858 H         1 MOL         0.0325
      9 H4          2.4988   -2.5328   -1.9939 H         1 MOL         0.0329
     10 H5          2.3250   -1.8742   -0.3567 H         1 MOL         0.0329
     11 H6          3.7492   -1.4768   -1.3156 H         1 MOL         0.0329
     12 H7          2.3476   -0.9086   -4.0310 H         1 MOL         0.0329
     13 H8          3.5990    0.0895   -3.2696 H         1 MOL         0.0329
     14 H9          2.0524    0.8131   -3.7291 H         1 MOL         0.0329
     15 H10         0.2003   -1.4445   -2.7233 H         1 MOL         0.0371
     16 H11        -0.0236    0.2810   -2.4589 H         1 MOL         0.0371
     17 H12         2.1567    0.4305   -1.2810 H         1 MOL         0.0456
@<TRIPOS>BOND
     1    1    4 1
     2    2    5 1
     3    3    5 1
     4    4    5 1
     5    1    6 1
     6    1    7 1
     7    1    8 1
     8    2    9 1
     9    2   10 1
    10    2   11 1
    11    3   12 1
    12    3   13 1
    13    3   14 1
    14    4   15 1
    15    4   16 1
    16    5   17 1
