@<TRIPOS>MOLECULE
1,2,3,4-tetrachlorobenzene
   12    12     0     0     0
SMALL
USER_CHARGES

@<TRIPOS>ATOM
      1 C1          1.8851   -1.0363   -0.1124 C.ar      1 MOL        -0.1112
      2 C2          0.8066   -0.4630    0.5610 C.ar      1 MOL        -0.1111
      3 C3          2.9210   -1.6309    0.6081 C.ar      1 MOL         0.0221
      4 C4          0.7638   -0.4841    1.9551 C.ar      1 MOL         0.0221
      5 C5          2.8783   -1.6520    2.0022 C.ar      1 MOL         0.0226
      6 C6          1.7997   -1.0786    2.6757 C.ar      1 MOL         0.0226
      7 Cl1         4.2214   -2.3236   -0.3001 Cl        1 MOL        -0.0546
      8 Cl2        -0.6076    0.2476    2.7161 Cl        1 MOL        -0.0546
      9 Cl3         4.1770   -2.3967    2.8893 Cl        1 MOL        -0.0383
     10 Cl4         1.7351   -1.0964    4.4146 Cl        1 MOL        -0.0383
     11 H1          1.9001   -1.0122   -1.1994 H         1 MOL         0.1593
     12 H2          0.0086   -0.0037   -0.0172 H         1 MOL         0.1593
@<TRIPOS>BOND
     1    1    2 ar
     2    1    3 ar
     3    2    4 ar
     4    3    5 ar
     5    3    7 1
     6    4    6 ar
     7    4    8 1
     8    5    6 ar
     9    5    9 1
    10    6   10 1
    11    1   11 1
    12    2   12 1
