@<TRIPOS>MOLECULE
1,2,3,5-tetrachlorobenzene
   12    12     0     0     0
SMALL
USER_CHARGES

@<TRIPOS>ATOM
      1 C1          1.8851   -1.0363   -0.1124 C.ar      1 MOL        -0.1162
      2 C2          0.7638   -0.4841    1.9551 C.ar      1 MOL        -0.1162
      3 C3          0.8066   -0.4630    0.5610 C.ar      1 MOL         0.0292
      4 C4          2.9210   -1.6309    0.6081 C.ar      1 MOL         0.0309
      5 C5          1.7997   -1.0786    2.6757 C.ar      1 MOL         0.0309
      6 C6          2.8783   -1.6520    2.0022 C.ar      1 MOL         0.0142
      7 Cl1        -0.4712    0.2710   -0.3283 Cl        1 MOL        -0.0681
      8 Cl2         4.2254   -2.3206   -0.2963 Cl        1 MOL        -0.0530
      9 Cl3         1.6768   -1.0665    4.4018 Cl        1 MOL        -0.0530
     10 Cl4         4.1688   -2.3927    2.8998 Cl        1 MOL        -0.0373
     11 H1          1.9152   -1.0182   -1.2001 H         1 MOL         0.1693
     12 H2         -0.0790   -0.0359    2.4772 H         1 MOL         0.1693
@<TRIPOS>BOND
     1    1    3 ar
     2    1    4 ar
     3    2    3 ar
     4    2    5 ar
     5    3    7 1
     6    4    6 ar
     7    4    8 1
     8    5    6 ar
     9    5    9 1
    10    6   10 1
    11    1   11 1
    12    2   12 1
