@<TRIPOS>MOLECULE
1,4-diaminoanthracene-9,10-dione
   28    30     0     0     0
SMALL
USER_CHARGES

@<TRIPOS>ATOM
      1 C1          1.2904   -1.6865   -0.3516 C.ar      1 MOL        -0.1206
      2 C2          0.9563   -0.4630    0.2256 C.ar      1 MOL        -0.1205
      3 C3          2.5179   -2.2839   -0.0640 C.ar      1 MOL        -0.0872
      4 C4          1.8484    0.1684    1.0928 C.ar      1 MOL        -0.0872
      5 C5          7.7766   -1.5826    3.1822 C.ar      1 MOL        -0.1420
      6 C6          7.4425   -0.3591    3.7594 C.ar      1 MOL        -0.1420
      7 C7          3.4160   -1.6538    0.8057 C.ar      1 MOL        -0.1263
      8 C8          3.0812   -0.4277    1.3842 C.ar      1 MOL        -0.1263
      9 C9          5.6516   -1.6180    2.0237 C.ar      1 MOL        -0.1754
     10 C10         5.3168   -0.3919    2.6022 C.ar      1 MOL        -0.1754
     11 C11         6.8845   -2.2140    2.3149 C.ar      1 MOL         0.1817
     12 C12         6.2150    0.2382    3.4720 C.ar      1 MOL         0.1817
     13 C13         4.7134   -2.2938    1.1043 C.2       1 MOL         0.5982
     14 C14         4.0194    0.2481    2.3036 C.2       1 MOL         0.5982
     15 N1          7.2936   -3.4518    1.7678 N.pl3     1 MOL        -0.8339
     16 N2          5.9471    1.4793    4.0940 N.pl3     1 MOL        -0.8339
     17 O1          4.9714   -3.3693    0.5787 O.2       1 MOL        -0.5729
     18 O2          3.6908    1.3216    2.7926 O.2       1 MOL        -0.5729
     19 H1          0.5938   -2.1759   -1.0262 H         1 MOL         0.1387
     20 H2          0.0006    0.0006   -0.0008 H         1 MOL         0.1387
     21 H3          2.7513   -3.2384   -0.5281 H         1 MOL         0.1610
     22 H4          1.5625    1.1218    1.5289 H         1 MOL         0.1610
     23 H5          8.7375   -2.0343    3.4167 H         1 MOL         0.1387
     24 H6          8.1494    0.1196    4.4331 H         1 MOL         0.1387
     25 H7          8.2058   -3.7975    1.9799 H         1 MOL         0.4200
     26 H8          6.7009   -3.9087    1.1070 H         1 MOL         0.4200
     27 H9          6.6115    1.8510    4.7396 H         1 MOL         0.4200
     28 H10         5.0594    1.9123    3.9483 H         1 MOL         0.4200
@<TRIPOS>BOND
     1    1    2 ar
     2    1    3 ar
     3    2    4 ar
     4    3    7 ar
     5    4    8 ar
     6    5    6 ar
     7    5   11 ar
     8    6   12 ar
     9    7    8 ar
    10    7   13 1
    11    8   14 1
    12    9   10 ar
    13    9   11 ar
    14    9   13 1
    15   10   12 ar
    16   10   14 1
    17   11   15 1
    18   12   16 1
    19   13   17 2
    20   14   18 2
    21    1   19 1
    22    2   20 1
    23    3   21 1
    24    4   22 1
    25    5   23 1
    26    6   24 1
    27   15   25 1
    28   15   26 1
    29   16   27 1
    30   16   28 1
