@<TRIPOS>MOLECULE
4-methylpentan-2-one
   19    18     0     0     0
SMALL
USER_CHARGES

@<TRIPOS>ATOM
      1 C1          1.9779   -0.5642    0.5921 C.2       1 MOL         0.5675
      2 C2          2.1577    0.8849    0.2199 C.3       1 MOL        -0.2021
      3 C3          4.7488   -1.8026    0.2531 C.3       1 MOL        -0.0937
      4 C4          5.1204   -1.4658    2.7050 C.3       1 MOL        -0.0937
      5 C5          2.8340   -1.0707    1.7426 C.3       1 MOL        -0.1825
      6 C6          4.3444   -0.9798    1.4791 C.3       1 MOL        -0.0587
      7 O1          1.2040   -1.2864   -0.0343 O.2       1 MOL        -0.5344
      8 H1          2.9411    0.9736   -0.5366 H         1 MOL         0.0633
      9 H2          1.2233    1.2799   -0.1885 H         1 MOL         0.0633
     10 H3          2.4238    1.4615    1.1091 H         1 MOL         0.0633
     11 H4          4.4882   -2.8573    0.3927 H         1 MOL         0.0379
     12 H5          4.2401   -1.4471   -0.6497 H         1 MOL         0.0379
     13 H6          5.8273   -1.7507    0.0751 H         1 MOL         0.0379
     14 H7          4.8780   -2.5099    2.9301 H         1 MOL         0.0379
     15 H8          4.8843   -0.8644    3.5896 H         1 MOL         0.0379
     16 H9          6.2000   -1.4048    2.5314 H         1 MOL         0.0379
     17 H10         2.5691   -0.4639    2.6167 H         1 MOL         0.0672
     18 H11         2.5519   -2.1087    1.9534 H         1 MOL         0.0672
     19 H12         4.6222    0.0661    1.2978 H         1 MOL         0.0461
@<TRIPOS>BOND
     1    1    2 1
     2    1    5 1
     3    1    7 2
     4    3    6 1
     5    4    6 1
     6    5    6 1
     7    2    8 1
     8    2    9 1
     9    2   10 1
    10    3   11 1
    11    3   12 1
    12    3   13 1
    13    4   14 1
    14    4   15 1
    15    4   16 1
    16    5   17 1
    17    5   18 1
    18    6   19 1
