@<TRIPOS>MOLECULE
diethoxymethoxybenzene
   30    30     0     0     0
SMALL
USER_CHARGES

@<TRIPOS>ATOM
      1 C1         -5.3291    3.2299    3.9411 C.ar      1 MOL        -0.1319
      2 C2         -5.2413    3.1905    2.5496 C.ar      1 MOL        -0.1232
      3 C3         -4.3105    2.6809    4.7201 C.ar      1 MOL        -0.1232
      4 C4         -4.1349    2.6020    1.9370 C.ar      1 MOL        -0.1353
      5 C5         -3.2042    2.0924    4.1075 C.ar      1 MOL        -0.1353
      6 C6         -3.1163    2.0530    2.7159 C.ar      1 MOL         0.0853
      7 C7          1.8766    0.7040    0.6822 C.3       1 MOL        -0.1108
      8 C8         -2.8915    1.1840   -2.5446 C.3       1 MOL        -0.1108
      9 C9          0.3688    0.6232    0.7907 C.3       1 MOL         0.1436
     10 C10        -2.2087    1.9959   -1.4646 C.3       1 MOL         0.1436
     11 C11        -1.6086    1.9688    0.8331 C.3       1 MOL         0.5118
     12 O1         -2.0314    1.4740    2.1154 O.3       1 MOL        -0.3480
     13 O2         -0.1706    1.9379    0.7371 O.3       1 MOL        -0.4512
     14 O3         -2.2391    1.2639   -0.2461 O.3       1 MOL        -0.4512
     15 H1         -6.1901    3.6886    4.4184 H         1 MOL         0.1360
     16 H2         -6.0344    3.6179    1.9428 H         1 MOL         0.1345
     17 H3         -4.3796    2.7122    5.8036 H         1 MOL         0.1345
     18 H4         -4.0732    2.5733    0.8525 H         1 MOL         0.1507
     19 H5         -2.4146    1.6647    4.7193 H         1 MOL         0.1507
     20 H6          2.1756    1.1656   -0.2629 H         1 MOL         0.0468
     21 H7          2.2922    1.2896    1.5088 H         1 MOL         0.0468
     22 H8          2.3219   -0.2945    0.7442 H         1 MOL         0.0468
     23 H9         -2.3796    0.2299   -2.6979 H         1 MOL         0.0468
     24 H10        -3.9349    0.9867   -2.2778 H         1 MOL         0.0468
     25 H11        -2.9037    1.7344   -3.4913 H         1 MOL         0.0468
     26 H12         0.0764    0.1606    1.7381 H         1 MOL         0.0398
     27 H13        -0.0449    0.0385   -0.0364 H         1 MOL         0.0398
     28 H14        -2.7255    2.9487   -1.3163 H         1 MOL         0.0398
     29 H15        -1.1661    2.1914   -1.7324 H         1 MOL         0.0398
     30 H16        -1.8654    3.0342    0.7774 H         1 MOL         0.0904
@<TRIPOS>BOND
     1    1    2 ar
     2    1    3 ar
     3    2    4 ar
     4    3    5 ar
     5    4    6 ar
     6    5    6 ar
     7    6   12 1
     8    7    9 1
     9    8   10 1
    10    9   13 1
    11   10   14 1
    12   11   12 1
    13   11   13 1
    14   11   14 1
    15    1   15 1
    16    2   16 1
    17    3   17 1
    18    4   18 1
    19    5   19 1
    20    7   20 1
    21    7   21 1
    22    7   22 1
    23    8   23 1
    24    8   24 1
    25    8   25 1
    26    9   26 1
    27    9   27 1
    28   10   28 1
    29   10   29 1
    30   11   30 1
