@<TRIPOS>MOLECULE
diethyl butanedioate
   26    25     0     0     0
SMALL
USER_CHARGES

@<TRIPOS>ATOM
      1 C1         -1.9808   -0.7660    1.6139 C.2       1 MOL         0.6348
      2 C2         -4.2452   -0.8320    4.7671 C.2       1 MOL         0.6349
      3 C3         -1.1717    0.8163   -1.5884 C.3       1 MOL        -0.1004
      4 C4         -4.9353   -2.2758    8.0615 C.3       1 MOL        -0.1004
      5 C5         -3.1260   -0.4056    2.5360 C.3       1 MOL        -0.1267
      6 C6         -3.1241   -1.2208    3.8272 C.3       1 MOL        -0.1267
      7 C7         -0.9943   -0.1681   -0.4521 C.3       1 MOL         0.1393
      8 C8         -5.1664   -1.3535    6.8834 C.3       1 MOL         0.1393
      9 O1         -1.1642   -1.6545    1.8142 O.2       1 MOL        -0.5367
     10 O2         -5.0905    0.0235    4.5440 O.2       1 MOL        -0.5367
     11 O3         -2.0171    0.0568    0.5234 O.3       1 MOL        -0.4454
     12 O4         -4.1607   -1.5988    5.8950 O.3       1 MOL        -0.4454
     13 H1         -2.1459    0.6870   -2.0681 H         1 MOL         0.0487
     14 H2         -1.0910    1.8455   -1.2237 H         1 MOL         0.0487
     15 H3         -0.3871    0.6828   -2.3406 H         1 MOL         0.0487
     16 H4         -4.9959   -3.3236    7.7545 H         1 MOL         0.0487
     17 H5         -3.9516   -2.0942    8.5067 H         1 MOL         0.0487
     18 H6         -5.6779   -2.0938    8.8454 H         1 MOL         0.0487
     19 H7         -4.0682   -0.5319    1.9917 H         1 MOL         0.0935
     20 H8         -3.0082    0.6529    2.7965 H         1 MOL         0.0935
     21 H9         -2.1817   -1.0297    4.3540 H         1 MOL         0.0935
     22 H10        -3.1987   -2.2931    3.6162 H         1 MOL         0.0935
     23 H11        -0.0181   -0.0335    0.0233 H         1 MOL         0.0509
     24 H12        -1.0760   -1.1959   -0.8181 H         1 MOL         0.0509
     25 H13        -5.1044   -0.3073    7.1973 H         1 MOL         0.0509
     26 H14        -6.1493   -1.5369    6.4393 H         1 MOL         0.0509
@<TRIPOS>BOND
     1    1    5 1
     2    1    9 2
     3    1   11 1
     4    2    6 1
     5    2   10 2
     6    2   12 1
     7    3    7 1
     8    4    8 1
     9    5    6 1
    10    7   11 1
    11    8   12 1
    12    3   13 1
    13    3   14 1
    14    3   15 1
    15    4   16 1
    16    4   17 1
    17    4   18 1
    18    5   19 1
    19    5   20 1
    20    6   21 1
    21    6   22 1
    22    7   23 1
    23    7   24 1
    24    8   25 1
    25    8   26 1
