@<TRIPOS>MOLECULE
3-methylbutan-1-ol
   18    17     0     0     0
SMALL
USER_CHARGES

@<TRIPOS>ATOM
      1 C1          0.1986   -1.0772    0.0118 C.3       1 MOL        -0.0915
      2 C2         -2.1575   -1.6366   -0.6192 C.3       1 MOL        -0.0915
      3 C3         -0.3808   -1.3238   -2.4187 C.3       1 MOL        -0.0795
      4 C4          1.0651   -1.5436   -2.8473 C.3       1 MOL         0.1321
      5 C5         -0.6860   -1.8165   -0.9949 C.3       1 MOL        -0.0660
      6 O1          1.2325   -1.0345   -4.1647 O.3       1 MOL        -0.6033
      7 H1         -0.0034   -0.0010   -0.0089 H         1 MOL         0.0343
      8 H2          1.2613   -1.2269   -0.2074 H         1 MOL         0.0343
      9 H3          0.0090   -1.4315    1.0306 H         1 MOL         0.0343
     10 H4         -2.4530   -0.5829   -0.6647 H         1 MOL         0.0343
     11 H5         -2.3449   -1.9960    0.3985 H         1 MOL         0.0343
     12 H6         -2.8117   -2.2039   -1.2879 H         1 MOL         0.0343
     13 H7         -0.6054   -0.2513   -2.4915 H         1 MOL         0.0549
     14 H8         -1.0486   -1.8096   -3.1423 H         1 MOL         0.0549
     15 H9          1.7545   -1.0153   -2.1813 H         1 MOL         0.0201
     16 H10         1.3214   -2.6067   -2.8604 H         1 MOL         0.0201
     17 H11        -0.4442   -2.8850   -0.9331 H         1 MOL         0.0459
     18 H12         2.1594   -1.1887   -4.4079 H         1 MOL         0.3983
@<TRIPOS>BOND
     1    1    5 1
     2    2    5 1
     3    3    4 1
     4    3    5 1
     5    4    6 1
     6    1    7 1
     7    1    8 1
     8    1    9 1
     9    2   10 1
    10    2   11 1
    11    2   12 1
    12    3   13 1
    13    3   14 1
    14    4   15 1
    15    4   16 1
    16    5   17 1
    17    6   18 1
