@<TRIPOS>MOLECULE
methyl hexanoate
   23    22     0     0     0
SMALL
USER_CHARGES

@<TRIPOS>ATOM
      1 C1          1.5898    0.9607    6.3332 C.2       1 MOL         0.6311
      2 C2          0.0860    1.1284    0.1342 C.3       1 MOL        -0.0925
      3 C3          2.6053    0.7410    8.4590 C.3       1 MOL         0.1264
      4 C4          1.7849    0.6046    4.8759 C.3       1 MOL        -0.1251
      5 C5         -0.1408    1.4632    1.5999 C.3       1 MOL        -0.0795
      6 C6          0.7154    1.2021    3.9617 C.3       1 MOL        -0.0766
      7 C7          0.9236    0.8238    2.4919 C.3       1 MOL        -0.0790
      8 O1          0.6594    1.6175    6.7799 O.2       1 MOL        -0.5370
      9 O2          2.6334    0.4569    7.0565 O.3       1 MOL        -0.4454
     10 H1          1.0736    1.4653   -0.1969 H         1 MOL         0.0340
     11 H2          0.0154    0.0495   -0.0373 H         1 MOL         0.0340
     12 H3         -0.6675    1.6211   -0.4880 H         1 MOL         0.0340
     13 H4          3.4796    0.2950    8.9394 H         1 MOL         0.0496
     14 H5          1.6895    0.3347    8.8957 H         1 MOL         0.0496
     15 H6          2.6260    1.8238    8.6029 H         1 MOL         0.0496
     16 H7          1.7927   -0.4862    4.7709 H         1 MOL         0.0765
     17 H8          2.7670    0.9894    4.5782 H         1 MOL         0.0765
     18 H9         -1.1358    1.1133    1.8985 H         1 MOL         0.0405
     19 H10        -0.1279    2.5520    1.7261 H         1 MOL         0.0405
     20 H11         0.7515    2.2945    4.0546 H         1 MOL         0.0547
     21 H12        -0.2825    0.8871    4.2894 H         1 MOL         0.0547
     22 H13         0.8892   -0.2654    2.3743 H         1 MOL         0.0417
     23 H14         1.9187    1.1513    2.1669 H         1 MOL         0.0417
@<TRIPOS>BOND
     1    1    4 1
     2    1    8 2
     3    1    9 1
     4    2    5 1
     5    3    9 1
     6    4    6 1
     7    5    7 1
     8    6    7 1
     9    2   10 1
    10    2   11 1
    11    2   12 1
    12    3   13 1
    13    3   14 1
    14    3   15 1
    15    4   16 1
    16    4   17 1
    17    5   18 1
    18    5   19 1
    19    6   20 1
    20    6   21 1
    21    7   22 1
    22    7   23 1
