@<TRIPOS>MOLECULE
1,4-dimethylcyclohexane
   24    24     0     0     0
SMALL
USER_CHARGES

@<TRIPOS>ATOM
      1 C1          0.8696   -0.5734    0.3461 C.3       1 MOL        -0.0725
      2 C2          1.8746    0.3795    0.9910 C.3       1 MOL        -0.0724
      3 C3         -0.1309   -1.0531    2.6146 C.3       1 MOL        -0.0724
      4 C4          0.8743   -0.1004    3.2593 C.3       1 MOL        -0.0724
      5 C5          0.4196   -1.6683    1.3218 C.3       1 MOL        -0.0647
      6 C6          1.3236    0.9946    2.2837 C.3       1 MOL        -0.0647
      7 C7         -0.6220   -2.5762    0.6708 C.3       1 MOL        -0.0900
      8 C8          2.3642    1.9035    2.9349 C.3       1 MOL        -0.0900
      9 H1         -0.0003   -0.0003    0.0004 H         1 MOL         0.0388
     10 H2          1.3231   -1.0284   -0.5424 H         1 MOL         0.0388
     11 H3          2.8036   -0.1653    1.2025 H         1 MOL         0.0388
     12 H4          2.1279    1.1731    0.2779 H         1 MOL         0.0388
     13 H5         -0.3839   -1.8469    3.3276 H         1 MOL         0.0388
     14 H6         -1.0600   -0.5081    2.4037 H         1 MOL         0.0388
     15 H7          0.4210    0.3545    4.1483 H         1 MOL         0.0388
     16 H8          1.7440   -0.6738    3.6049 H         1 MOL         0.0388
     17 H9          1.2921   -2.2847    1.5766 H         1 MOL         0.0461
     18 H10         0.4504    1.6101    2.0291 H         1 MOL         0.0461
     19 H11        -1.5033   -1.9950    0.4047 H         1 MOL         0.0327
     20 H12        -0.9103   -3.3638    1.3648 H         1 MOL         0.0327
     21 H13        -0.2072   -3.0275   -0.2290 H         1 MOL         0.0327
     22 H14         3.2461    1.3232    3.2008 H         1 MOL         0.0327
     23 H15         1.9489    2.3540    3.8347 H         1 MOL         0.0327
     24 H16         2.6514    2.6917    2.2409 H         1 MOL         0.0327
@<TRIPOS>BOND
     1    1    2 1
     2    1    5 1
     3    2    6 1
     4    3    4 1
     5    3    5 1
     6    4    6 1
     7    5    7 1
     8    6    8 1
     9    1    9 1
    10    1   10 1
    11    2   11 1
    12    2   12 1
    13    3   13 1
    14    3   14 1
    15    4   15 1
    16    4   16 1
    17    5   17 1
    18    6   18 1
    19    7   19 1
    20    7   20 1
    21    7   21 1
    22    8   22 1
    23    8   23 1
    24    8   24 1
