@<TRIPOS>MOLECULE
butanal
   13    12     0     0     0
SMALL
USER_CHARGES

@<TRIPOS>ATOM
      1 C1          1.4929    1.2003   -0.8111 C.2       1 MOL         0.5624
      2 C2         -1.2663   -1.0584    0.6899 C.3       1 MOL        -0.0928
      3 C3          0.8304    0.2084    0.1144 C.3       1 MOL        -0.1976
      4 C4         -0.6335   -0.0320   -0.2353 C.3       1 MOL        -0.0758
      5 O1          0.9273    1.7880   -1.7268 O.2       1 MOL        -0.5249
      6 H1          2.5639    1.3777   -0.6117 H         1 MOL        -0.0089
      7 H2         -0.7281   -2.0107    0.6461 H         1 MOL         0.0340
      8 H3         -1.2423   -0.7020    1.7244 H         1 MOL         0.0340
      9 H4         -2.3107   -1.2407    0.4175 H         1 MOL         0.0340
     10 H5          0.9217    0.5978    1.1341 H         1 MOL         0.0653
     11 H6          1.3970   -0.7271    0.0540 H         1 MOL         0.0653
     12 H7         -1.1933    0.9087   -0.1693 H         1 MOL         0.0526
     13 H8         -0.7187   -0.3782   -1.2723 H         1 MOL         0.0526
@<TRIPOS>BOND
     1    1    3 1
     2    1    5 2
     3    2    4 1
     4    3    4 1
     5    1    6 1
     6    2    7 1
     7    2    8 1
     8    2    9 1
     9    3   10 1
    10    3   11 1
    11    4   12 1
    12    4   13 1
