@<TRIPOS>MOLECULE
cyclopentene
   13    13     0     0     0
SMALL
USER_CHARGES

@<TRIPOS>ATOM
      1 C1         -0.4084   -1.1338   -0.0438 C.2       1 MOL        -0.1773
      2 C2         -1.1954   -0.0593   -0.1476 C.2       1 MOL        -0.1773
      3 C3          1.0104   -0.7586    0.2211 C.3       1 MOL        -0.0577
      4 C4         -0.4299    1.2081    0.0310 C.3       1 MOL        -0.0577
      5 C5          1.0233    0.7436   -0.0606 C.3       1 MOL        -0.0827
      6 H1         -0.7592   -2.1535   -0.1101 H         1 MOL         0.1356
      7 H2         -2.2625   -0.0999   -0.3107 H         1 MOL         0.1356
      8 H3          1.2732   -0.9761    1.2614 H         1 MOL         0.0489
      9 H4          1.7020   -1.2903   -0.4388 H         1 MOL         0.0489
     10 H5         -0.6617    1.9372   -0.7507 H         1 MOL         0.0489
     11 H6         -0.6510    1.6510    1.0075 H         1 MOL         0.0489
     12 H7          1.6737    1.2870    0.6326 H         1 MOL         0.0430
     13 H8          1.4068    0.9267   -1.0730 H         1 MOL         0.0430
@<TRIPOS>BOND
     1    1    2 2
     2    1    3 1
     3    2    4 1
     4    3    5 1
     5    4    5 1
     6    1    6 1
     7    2    7 1
     8    3    8 1
     9    3    9 1
    10    4   10 1
    11    4   11 1
    12    5   12 1
    13    5   13 1
