@<TRIPOS>MOLECULE
1,2-diethoxyethane
   22    21     0     0     0
SMALL
USER_CHARGES

@<TRIPOS>ATOM
      1 C1          0.3016    0.5416    3.9174 C.3       1 MOL        -0.0968
      2 C2         -3.1659   -3.7253   -0.0467 C.3       1 MOL        -0.0967
      3 C3          0.3152    0.8016    2.4261 C.3       1 MOL         0.1319
      4 C4         -3.2682   -2.2457   -0.3502 C.3       1 MOL         0.1319
      5 C5         -0.8936    0.4506    0.4416 C.3       1 MOL         0.1276
      6 C6         -2.1461   -0.1936   -0.1209 C.3       1 MOL         0.1276
      7 O1         -0.8526    0.2362    1.8472 O.3       1 MOL        -0.4273
      8 O2         -2.1048   -1.5918    0.1373 O.3       1 MOL        -0.4273
      9 H1         -0.5755    0.9976    4.3850 H         1 MOL         0.0452
     10 H2          0.2921   -0.5341    4.1217 H         1 MOL         0.0452
     11 H3          1.2035    0.9470    4.3879 H         1 MOL         0.0452
     12 H4         -2.2898   -4.1636   -0.5327 H         1 MOL         0.0452
     13 H5         -3.0928   -3.8938    1.0327 H         1 MOL         0.0452
     14 H6         -4.0617   -4.2526   -0.3913 H         1 MOL         0.0452
     15 H7          1.1948    0.3430    1.9646 H         1 MOL         0.0250
     16 H8          0.3238    1.8768    2.2238 H         1 MOL         0.0250
     17 H9         -4.1464   -1.8135    0.1387 H         1 MOL         0.0250
     18 H10        -3.3402   -2.0790   -1.4291 H         1 MOL         0.0250
     19 H11        -0.8901    1.5299    0.2612 H         1 MOL         0.0395
     20 H12         0.0000    0.0000    0.0000 H         1 MOL         0.0395
     21 H13        -2.2121   -0.0487   -1.2038 H         1 MOL         0.0395
     22 H14        -3.0378    0.2178    0.3611 H         1 MOL         0.0395
@<TRIPOS>BOND
     1    1    3 1
     2    2    4 1
     3    3    7 1
     4    4    8 1
     5    5    6 1
     6    5    7 1
     7    6    8 1
     8    1    9 1
     9    1   10 1
    10    1   11 1
    11    2   12 1
    12    2   13 1
    13    2   14 1
    14    3   15 1
    15    3   16 1
    16    4   17 1
    17    4   18 1
    18    5   19 1
    19    5   20 1
    20    6   21 1
    21    6   22 1
