@<TRIPOS>MOLECULE
2-methoxyethanol
   13    12     0     0     0
SMALL
USER_CHARGES

@<TRIPOS>ATOM
      1 C1         -4.4874   -0.0068   -0.1997 C.3       1 MOL         0.1172
      2 C2         -0.8936    0.4506    0.4416 C.3       1 MOL         0.1275
      3 C3         -2.1461   -0.1936   -0.1209 C.3       1 MOL         0.1221
      4 O1         -0.8015    1.7855   -0.0410 O.3       1 MOL        -0.6035
      5 O2         -3.2827    0.5410    0.3172 O.3       1 MOL        -0.4229
      6 H1         -5.3375    0.5804    0.1560 H         1 MOL         0.0342
      7 H2         -4.5860   -1.0452    0.1267 H         1 MOL         0.0342
      8 H3         -4.4542    0.0285   -1.2912 H         1 MOL         0.0342
      9 H4          0.0040   -0.0891    0.1246 H         1 MOL         0.0358
     10 H5         -0.9377    0.4835    1.5341 H         1 MOL         0.0358
     11 H6         -2.2509   -1.2251    0.2298 H         1 MOL         0.0408
     12 H7         -2.1275   -0.1762   -1.2145 H         1 MOL         0.0408
     13 H8          0.0079    2.1639    0.3380 H         1 MOL         0.4040
@<TRIPOS>BOND
     1    1    5 1
     2    2    3 1
     3    2    4 1
     4    3    5 1
     5    1    6 1
     6    1    7 1
     7    1    8 1
     8    2    9 1
     9    2   10 1
    10    3   11 1
    11    3   12 1
    12    4   13 1
