@<TRIPOS>MOLECULE
2-hydroxyethyl nitrate
   12    11     0     0     0
SMALL
USER_CHARGES

@<TRIPOS>ATOM
      1 C1         -0.8936    0.4506    0.4416 C.3       1 MOL         0.1308
      2 C2         -2.1461   -0.1936   -0.1209 C.3       1 MOL         0.1247
      3 N1         -4.5157    0.0156   -0.1583 N.pl3     1 MOL         0.3712
      4 O1         -4.3691   -0.9827   -0.8645 O.3       1 MOL        -0.1582
      5 O2         -5.5513    0.5953    0.1768 O.2       1 MOL        -0.1582
      6 O3         -0.8015    1.7855   -0.0410 O.3       1 MOL        -0.5979
      7 O4         -3.2827    0.5410    0.3172 O.3       1 MOL        -0.3672
      8 H1          0.0040   -0.0891    0.1246 H         1 MOL         0.0461
      9 H2         -0.9377    0.4835    1.5341 H         1 MOL         0.0461
     10 H3         -2.2509   -1.2251    0.2298 H         1 MOL         0.0733
     11 H4         -2.1275   -0.1762   -1.2145 H         1 MOL         0.0733
     12 H5          0.0079    2.1639    0.3380 H         1 MOL         0.4160
@<TRIPOS>BOND
     1    1    2 1
     2    1    6 1
     3    2    7 1
     4    3    4 1
     5    3    5 2
     6    3    7 1
     7    1    8 1
     8    1    9 1
     9    2   10 1
    10    2   11 1
    11    6   12 1
