@<TRIPOS>MOLECULE
N,N-dimethylmethanamine
   13    12     0     0     0
SMALL
USER_CHARGES

@<TRIPOS>ATOM
      1 C1         -0.2717   -0.2549    1.0309 C.3       1 MOL         0.1566
      2 C2          1.7513    0.6707    1.9381 C.3       1 MOL         0.1566
      3 C3          1.6567   -1.6543    1.3398 C.3       1 MOL         0.1566
      4 N1          0.9013   -0.5170    1.8640 N.3       1 MOL        -0.7398
      5 H1         -0.9027   -1.1460    0.9795 H         1 MOL         0.0300
      6 H2          0.0373    0.0164    0.0177 H         1 MOL         0.0300
      7 H3         -0.8574    0.5673    1.4506 H         1 MOL         0.0300
      8 H4          2.6259    0.4685    2.5619 H         1 MOL         0.0300
      9 H5          1.1956    1.5068    2.3715 H         1 MOL         0.0300
     10 H6          2.0903    0.9559    0.9386 H         1 MOL         0.0300
     11 H7          2.5317   -1.8451    1.9665 H         1 MOL         0.0300
     12 H8          1.9925   -1.4473    0.3201 H         1 MOL         0.0300
     13 H9          1.0305   -2.5505    1.3275 H         1 MOL         0.0300
@<TRIPOS>BOND
     1    1    4 1
     2    2    4 1
     3    3    4 1
     4    1    5 1
     5    1    6 1
     6    1    7 1
     7    2    8 1
     8    2    9 1
     9    2   10 1
    10    3   11 1
    11    3   12 1
    12    3   13 1
