@<TRIPOS>MOLECULE
2-acetoxyethyl acetate
   20    19     0     0     0
SMALL
USER_CHARGES

@<TRIPOS>ATOM
      1 C1         -0.7126    1.3208   -1.5485 C.2       1 MOL         0.6376
      2 C2         -4.7448   -2.1207   -2.4716 C.2       1 MOL         0.6376
      3 C3         -0.1306    1.1111   -0.1834 C.3       1 MOL        -0.1498
      4 C4         -4.3196   -3.5311   -2.1961 C.3       1 MOL        -0.1498
      5 C5         -2.5898    0.8104   -2.8899 C.3       1 MOL         0.1367
      6 C6         -3.9063    0.0606   -2.8220 C.3       1 MOL         0.1367
      7 O1         -0.1670    1.9646   -2.4344 O.2       1 MOL        -0.5340
      8 O2         -5.9099   -1.7679   -2.5948 O.2       1 MOL        -0.5340
      9 O3         -1.9187    0.6904   -1.6316 O.3       1 MOL        -0.4506
     10 O4         -3.6452   -1.3131   -2.5610 O.3       1 MOL        -0.4506
     11 H1         -0.4556    1.9119    0.4853 H         1 MOL         0.0778
     12 H2          0.9601    1.0798   -0.2460 H         1 MOL         0.0778
     13 H3         -0.4833    0.1567    0.2184 H         1 MOL         0.0778
     14 H4         -4.1625   -4.0619   -3.1383 H         1 MOL         0.0778
     15 H5         -5.0772   -4.0355   -1.5911 H         1 MOL         0.0778
     16 H6         -3.3782   -3.5238   -1.6390 H         1 MOL         0.0778
     17 H7         -2.7514    1.8740   -3.0899 H         1 MOL         0.0634
     18 H8         -1.9455    0.3833   -3.6639 H         1 MOL         0.0634
     19 H9         -4.4495    0.1303   -3.7697 H         1 MOL         0.0634
     20 H10        -4.5281    0.4514   -2.0113 H         1 MOL         0.0634
@<TRIPOS>BOND
     1    1    3 1
     2    1    7 2
     3    1    9 1
     4    2    4 1
     5    2    8 2
     6    2   10 1
     7    5    6 1
     8    5    9 1
     9    6   10 1
    10    3   11 1
    11    3   12 1
    12    3   13 1
    13    4   14 1
    14    4   15 1
    15    4   16 1
    16    5   17 1
    17    5   18 1
    18    6   19 1
    19    6   20 1
