@<TRIPOS>MOLECULE
6-chloro-1H-pyrimidine-2,4-dione
   12    12     0     0     0
SMALL
USER_CHARGES

@<TRIPOS>ATOM
      1 C1         -0.7215    0.6822    0.9951 C.2       1 MOL        -0.2999
      2 C2         -0.0326    1.3123    0.0418 C.2       1 MOL         0.1898
      3 C3         -0.7260   -0.8010    1.0047 C.2       1 MOL         0.7135
      4 C4          0.7315   -0.7289   -1.0081 C.2       1 MOL         0.8111
      5 N1          0.6703    0.6550   -0.9274 N.am      1 MOL        -0.4733
      6 N2          0.0109   -1.3958   -0.0117 N.am      1 MOL        -0.5850
      7 O1         -1.3471   -1.4209    1.8632 O.2       1 MOL        -0.5955
      8 O2          1.3652   -1.3220   -1.8814 O.2       1 MOL        -0.6261
      9 Cl1         0.0493    3.0191   -0.0762 Cl        1 MOL        -0.0536
     10 H1         -1.2802    1.2025    1.7641 H         1 MOL         0.1948
     11 H2          1.1653    1.2145   -1.6153 H         1 MOL         0.3658
     12 H3          0.0282   -2.4114   -0.0334 H         1 MOL         0.3584
@<TRIPOS>BOND
     1    1    2 2
     2    1    3 1
     3    2    5 1
     4    2    9 1
     5    3    6 am
     6    3    7 2
     7    4    5 am
     8    4    6 am
     9    4    8 2
    10    1   10 1
    11    5   11 1
    12    6   12 1
