@<TRIPOS>MOLECULE
1,2-dibromoethane
    8     7     0     0     0
SMALL
USER_CHARGES

@<TRIPOS>ATOM
      1 C1         -0.2477    0.5488    0.4548 C.3       1 MOL        -0.0147
      2 C2          0.2477   -0.5489   -0.4546 C.3       1 MOL        -0.0146
      3 Br1        -1.3643   -0.2200    1.8507 Br        1 MOL        -0.1620
      4 Br2         1.3190    0.2258   -1.8828 Br        1 MOL        -0.1620
      5 H1          0.5696    1.0714    0.9604 H         1 MOL         0.0883
      6 H2         -0.8665    1.2801   -0.0735 H         1 MOL         0.0883
      7 H3         -0.5707   -1.0914   -0.9368 H         1 MOL         0.0883
      8 H4          0.8915   -1.2631    0.0668 H         1 MOL         0.0883
@<TRIPOS>BOND
     1    1    2 1
     2    1    3 1
     3    2    4 1
     4    1    5 1
     5    1    6 1
     6    2    7 1
     7    2    8 1
