@<TRIPOS>MOLECULE
isoindoline-1,3-dione
   16    17     0     0     0
SMALL
USER_CHARGES

@<TRIPOS>ATOM
      1 C1         -0.4087   -0.9494   -1.8988 C.ar      1 MOL        -0.1177
      2 C2         -0.1118   -0.9479   -0.5202 C.ar      1 MOL        -0.1177
      3 C3         -0.5588   -2.1488   -2.6010 C.ar      1 MOL        -0.0616
      4 C4          0.0406   -2.1457    0.1841 C.ar      1 MOL        -0.0616
      5 C5         -0.4040   -3.3182   -1.8860 C.ar      1 MOL        -0.1404
      6 C6         -0.1119   -3.3166   -0.5286 C.ar      1 MOL        -0.1404
      7 C7         -0.4965   -4.7098   -2.3265 C.2       1 MOL         0.7232
      8 C8         -0.0150   -4.7072   -0.0858 C.2       1 MOL         0.7232
      9 N1         -0.2546   -5.4684   -1.2055 N.am      1 MOL        -0.6231
     10 O1         -0.7391   -5.0654   -3.4639 O.2       1 MOL        -0.5703
     11 O2          0.2311   -5.0602    1.0516 O.2       1 MOL        -0.5703
     12 H1         -0.5213   -0.0028   -2.4210 H         1 MOL         0.1442
     13 H2         -0.0005   -0.0001    0.0001 H         1 MOL         0.1442
     14 H3         -0.7867   -2.1496   -3.6604 H         1 MOL         0.1597
     15 H4          0.2685   -2.1440    1.2436 H         1 MOL         0.1597
     16 H5         -0.2532   -6.4822   -1.2046 H         1 MOL         0.3486
@<TRIPOS>BOND
     1    1    2 ar
     2    1    3 ar
     3    2    4 ar
     4    3    5 ar
     5    4    6 ar
     6    5    6 ar
     7    5    7 1
     8    6    8 1
     9    7    9 am
    10    7   10 2
    11    8    9 am
    12    8   11 2
    13    1   12 1
    14    2   13 1
    15    3   14 1
    16    4   15 1
    17    9   16 1
