@<TRIPOS>MOLECULE
1-propylsulfanylpropane
   21    20     0     0     0
SMALL
USER_CHARGES

@<TRIPOS>ATOM
      1 C1         -0.3672   -0.3200    3.3261 C.3       1 MOL        -0.0928
      2 C2          6.2007   -3.4172    0.6460 C.3       1 MOL        -0.0927
      3 C3          1.1200   -0.3490    3.6472 C.3       1 MOL        -0.0703
      4 C4          5.7179   -2.5113    1.7694 C.3       1 MOL        -0.0703
      5 C5          1.8811   -1.2098    2.6451 C.3       1 MOL        -0.0073
      6 C6          4.2094   -2.3030    1.6966 C.3       1 MOL        -0.0073
      7 S1          3.6528   -1.2294    3.0399 S.3       1 MOL        -0.3138
      8 H1         -0.5431    0.0639    2.3161 H         1 MOL         0.0353
      9 H2         -0.7871   -1.3291    3.3839 H         1 MOL         0.0353
     10 H3         -0.9092    0.3146    4.0347 H         1 MOL         0.0353
     11 H4          5.7013   -4.3906    0.6849 H         1 MOL         0.0353
     12 H5          5.9846   -2.9632   -0.3262 H         1 MOL         0.0353
     13 H6          7.2810   -3.5818    0.7116 H         1 MOL         0.0353
     14 H7          1.2528   -0.7383    4.6639 H         1 MOL         0.0541
     15 H8          1.5024    0.6788    3.6361 H         1 MOL         0.0541
     16 H9          6.2405   -1.5499    1.6952 H         1 MOL         0.0541
     17 H10         5.9954   -2.9631    2.7295 H         1 MOL         0.0541
     18 H11         1.5110   -2.2400    2.6610 H         1 MOL         0.0566
     19 H12         1.7568   -0.8214    1.6292 H         1 MOL         0.0566
     20 H13         3.9285   -1.8411    0.7447 H         1 MOL         0.0566
     21 H14         3.6830   -3.2595    1.7768 H         1 MOL         0.0566
@<TRIPOS>BOND
     1    1    3 1
     2    2    4 1
     3    3    5 1
     4    4    6 1
     5    5    7 1
     6    6    7 1
     7    1    8 1
     8    1    9 1
     9    1   10 1
    10    2   11 1
    11    2   12 1
    12    2   13 1
    13    3   14 1
    14    3   15 1
    15    4   16 1
    16    4   17 1
    17    5   18 1
    18    5   19 1
    19    6   20 1
    20    6   21 1
