@<TRIPOS>MOLECULE
1-phenylvinylbenzene
   26    27     0     0     0
SMALL
USER_CHARGES

@<TRIPOS>ATOM
      1 C1          4.8471    0.6385    6.4601 C.ar      1 MOL        -0.1276
      2 C2          1.6969   -1.2030   -0.1608 C.ar      1 MOL        -0.1276
      3 C3          5.1378   -0.4100    5.5873 C.ar      1 MOL        -0.1323
      4 C4          3.5405    1.1152    6.5669 C.ar      1 MOL        -0.1323
      5 C5          1.7312    0.0210    0.5071 C.ar      1 MOL        -0.1323
      6 C6          1.6816   -2.3937    0.5657 C.ar      1 MOL        -0.1323
      7 C7          4.1219   -0.9818    4.8213 C.ar      1 MOL        -0.1163
      8 C8          2.5247    0.5435    5.8008 C.ar      1 MOL        -0.1163
      9 C9          1.7503    0.0544    1.9014 C.ar      1 MOL        -0.1163
     10 C10         1.7007   -2.3603    1.9600 C.ar      1 MOL        -0.1163
     11 C11         2.8154   -0.5051    4.9280 C.ar      1 MOL        -0.0523
     12 C12         1.7351   -1.1362    2.6279 C.ar      1 MOL        -0.0523
     13 C13         0.6927   -1.6765    4.7553 C.2       1 MOL        -0.1987
     14 C14         1.7557   -1.1009    4.1294 C.2       1 MOL        -0.0158
     15 H1          5.6378    1.0828    7.0574 H         1 MOL         0.1317
     16 H2          1.6807   -1.2290   -1.2464 H         1 MOL         0.1317
     17 H3          6.1549   -0.7822    5.5049 H         1 MOL         0.1310
     18 H4          3.3139    1.9308    7.2472 H         1 MOL         0.1310
     19 H5          1.7420    0.9484   -0.0583 H         1 MOL         0.1310
     20 H6          1.6537   -3.3469    0.0458 H         1 MOL         0.1310
     21 H7          4.3641   -1.7985    4.1453 H         1 MOL         0.1354
     22 H8          1.5112    0.9261    5.8953 H         1 MOL         0.1354
     23 H9          1.7772    1.0164    2.4079 H         1 MOL         0.1354
     24 H10         1.6884   -3.2970    2.5122 H         1 MOL         0.1354
     25 H11        -0.1136   -2.1293    4.1855 H         1 MOL         0.1199
     26 H12         0.5887   -1.7172    5.8359 H         1 MOL         0.1199
@<TRIPOS>BOND
     1    1    3 ar
     2    1    4 ar
     3    2    5 ar
     4    2    6 ar
     5    3    7 ar
     6    4    8 ar
     7    5    9 ar
     8    6   10 ar
     9    7   11 ar
    10    8   11 ar
    11    9   12 ar
    12   10   12 ar
    13   11   14 1
    14   12   14 1
    15   13   14 2
    16    1   15 1
    17    2   16 1
    18    3   17 1
    19    4   18 1
    20    5   19 1
    21    6   20 1
    22    7   21 1
    23    8   22 1
    24    9   23 1
    25   10   24 1
    26   13   25 1
    27   13   26 1
