@<TRIPOS>MOLECULE
3,3-dimethylpentane
   23    22     0     0     0
SMALL
USER_CHARGES

@<TRIPOS>ATOM
      1 C1         -0.5076   -0.4808    0.8472 C.3       1 MOL        -0.0908
      2 C2         -2.4258   -3.7024    0.5509 C.3       1 MOL        -0.0908
      3 C3         -2.7382   -0.6454    2.9740 C.3       1 MOL        -0.0879
      4 C4         -4.3188   -1.3068    1.1665 C.3       1 MOL        -0.0879
      5 C5         -1.9974   -0.5983    0.5479 C.3       1 MOL        -0.0703
      6 C6         -2.3925   -2.8314    1.8011 C.3       1 MOL        -0.0703
      7 C7         -2.8406   -1.3572    1.6082 C.3       1 MOL        -0.0501
      8 H1         -0.0423   -1.4617    0.9772 H         1 MOL         0.0329
      9 H2         -0.3610    0.0776    1.7780 H         1 MOL         0.0329
     10 H3          0.0236    0.0561    0.0565 H         1 MOL         0.0329
     11 H4         -3.4326   -3.6912    0.1200 H         1 MOL         0.0329
     12 H5         -1.7377   -3.3361   -0.2158 H         1 MOL         0.0329
     13 H6         -2.1775   -4.7433    0.7752 H         1 MOL         0.0329
     14 H7         -1.7073   -0.6465    3.3457 H         1 MOL         0.0336
     15 H8         -3.3682   -1.1253    3.7301 H         1 MOL         0.0336
     16 H9         -3.0615    0.3994    2.8985 H         1 MOL         0.0336
     17 H10        -4.4703   -1.7958    0.1987 H         1 MOL         0.0336
     18 H11        -4.9686   -1.8005    1.8978 H         1 MOL         0.0336
     19 H12        -4.6635   -0.2712    1.0637 H         1 MOL         0.0336
     20 H13        -2.3988    0.4171    0.4296 H         1 MOL         0.0373
     21 H14        -2.1138   -1.0780   -0.4319 H         1 MOL         0.0373
     22 H15        -1.3757   -2.8597    2.2122 H         1 MOL         0.0373
     23 H16        -3.0312   -3.3046    2.5589 H         1 MOL         0.0373
@<TRIPOS>BOND
     1    1    5 1
     2    2    6 1
     3    3    7 1
     4    4    7 1
     5    5    7 1
     6    6    7 1
     7    1    8 1
     8    1    9 1
     9    1   10 1
    10    2   11 1
    11    2   12 1
    12    2   13 1
    13    3   14 1
    14    3   15 1
    15    3   16 1
    16    4   17 1
    17    4   18 1
    18    4   19 1
    19    5   20 1
    20    5   21 1
    21    6   22 1
    22    6   23 1
