@<TRIPOS>MOLECULE
N-(cyclopropylmethyl)-2,6-dinitro-N-propyl-4-(trifluoromethyl)aniline
   40    41     0     0     0
SMALL
USER_CHARGES

@<TRIPOS>ATOM
      1 C1          4.3796   -2.3385   -2.7019 C.ar      1 MOL        -0.0151
      2 C2          6.0071   -0.7081   -3.4298 C.ar      1 MOL        -0.0151
      3 C3          5.6703   -2.0281   -3.1300 C.ar      1 MOL        -0.1744
      4 C4          3.7624   -0.0090   -2.8735 C.ar      1 MOL         0.2912
      5 C5          3.4256   -1.3289   -2.5737 C.ar      1 MOL        -0.1746
      6 C6          5.0531    0.3015   -3.3015 C.ar      1 MOL        -0.1746
      7 C7         -0.2595    2.1317   -2.7748 C.3       1 MOL        -0.1261
      8 C8         -0.5505    1.9547   -4.2389 C.3       1 MOL        -0.1261
      9 C9          0.5105    1.1195   -3.5771 C.3       1 MOL        -0.1409
     10 C10         3.3792    1.9928    0.8933 C.3       1 MOL        -0.0900
     11 C11         1.9500    1.3481   -3.8904 C.3       1 MOL         0.2642
     12 C12         3.5805    1.2573   -0.4240 C.3       1 MOL        -0.1183
     13 C13         2.6189    1.7221   -1.5111 C.3       1 MOL         0.2347
     14 C14         6.6907   -3.1073   -3.2663 C.3       1 MOL         0.6937
     15 N1          2.8015    1.0088   -2.7448 N.pl3     1 MOL        -0.7767
     16 N2          2.1163   -1.6756   -2.1356 N.pl3     1 MOL         0.3199
     17 N3          5.4264    1.6391   -3.6144 N.pl3     1 MOL         0.3199
     18 O1          1.8670   -1.6642   -0.9076 O.3       1 MOL        -0.1784
     19 O2          5.2773    2.0492   -4.7891 O.3       1 MOL        -0.1784
     20 O3          1.2536   -1.9811   -2.9915 O.2       1 MOL        -0.1784
     21 O4          5.8924    2.3650   -2.7055 O.2       1 MOL        -0.1784
     22 F1          6.2224   -4.3480   -2.9389 F         1 MOL        -0.2246
     23 F2          7.1843   -3.2360   -4.5334 F         1 MOL        -0.2246
     24 F3          7.7792   -2.9045   -2.4682 F         1 MOL        -0.2246
     25 H1          4.1226   -3.3695   -2.4682 H         1 MOL         0.1841
     26 H2          7.0154   -0.4725   -3.7638 H         1 MOL         0.1841
     27 H3          0.2421    3.0411   -2.4678 H         1 MOL         0.0755
     28 H4         -0.9916    1.7623   -2.0672 H         1 MOL         0.0755
     29 H5         -1.4779    1.4668   -4.5129 H         1 MOL         0.0755
     30 H6         -0.2434    2.7454   -4.9122 H         1 MOL         0.0755
     31 H7          0.2925    0.0720   -3.4073 H         1 MOL         0.0936
     32 H8          3.5211    3.0708    0.7661 H         1 MOL         0.0369
     33 H9          2.3633    1.8270    1.2658 H         1 MOL         0.0369
     34 H10         4.0785    1.6407    1.6579 H         1 MOL         0.0369
     35 H11         2.1264    2.3992   -4.1377 H         1 MOL         0.0485
     36 H12         2.2662    0.7294   -4.7354 H         1 MOL         0.0485
     37 H13         3.4299    0.1850   -0.2530 H         1 MOL         0.0585
     38 H14         4.6169    1.3904   -0.7562 H         1 MOL         0.0585
     39 H15         1.5851    1.5530   -1.1938 H         1 MOL         0.0535
     40 H16         2.7410    2.7896   -1.7198 H         1 MOL         0.0535
@<TRIPOS>BOND
     1    1    3 ar
     2    1    5 ar
     3    2    3 ar
     4    2    6 ar
     5    3   14 1
     6    4    5 ar
     7    4    6 ar
     8    4   15 1
     9    5   16 1
    10    6   17 1
    11    7    8 1
    12    7    9 1
    13    8    9 1
    14    9   11 1
    15   10   12 1
    16   11   15 1
    17   12   13 1
    18   13   15 1
    19   14   22 1
    20   14   23 1
    21   14   24 1
    22   16   18 1
    23   16   20 2
    24   17   19 1
    25   17   21 2
    26    1   25 1
    27    2   26 1
    28    7   27 1
    29    7   28 1
    30    8   29 1
    31    8   30 1
    32    9   31 1
    33   10   32 1
    34   10   33 1
    35   10   34 1
    36   11   35 1
    37   11   36 1
    38   12   37 1
    39   12   38 1
    40   13   39 1
    41   13   40 1
