@<TRIPOS>MOLECULE
1-pyrrolidin-1-ylethanone
   19    19     0     0     0
SMALL
USER_CHARGES

@<TRIPOS>ATOM
      1 C1         -0.8576   -2.3754    3.1485 C.2       1 MOL         0.6653
      2 C2         -0.1848   -1.0587   -0.2182 C.3       1 MOL        -0.0933
      3 C3          1.0829   -1.8649    0.0355 C.3       1 MOL        -0.0933
      4 C4         -1.1613   -1.6371    0.7942 C.3       1 MOL         0.0977
      5 C5          1.0860   -2.0286    1.5489 C.3       1 MOL         0.0977
      6 C6          0.1446   -2.7768    4.2009 C.3       1 MOL        -0.1663
      7 N1         -0.3265   -2.0398    1.9165 N.am      1 MOL        -0.4897
      8 O1         -2.0624   -2.3650    3.4059 O.2       1 MOL        -0.6172
      9 H1         -0.0000    0.0001   -0.0003 H         1 MOL         0.0543
     10 H2         -0.5460   -1.1401   -1.2469 H         1 MOL         0.0543
     11 H3          1.0004   -2.8457   -0.4481 H         1 MOL         0.0543
     12 H4          1.9855   -1.3732   -0.3372 H         1 MOL         0.0543
     13 H5         -1.9253   -0.9217    1.1127 H         1 MOL         0.0475
     14 H6         -1.6560   -2.5353    0.4084 H         1 MOL         0.0475
     15 H7          1.5856   -2.9456    1.8726 H         1 MOL         0.0475
     16 H8          1.5537   -1.1704    2.0433 H         1 MOL         0.0475
     17 H9          0.4578   -1.8938    4.7483 H         1 MOL         0.0640
     18 H10         1.0012   -3.2373    3.7190 H         1 MOL         0.0640
     19 H11        -0.3169   -3.4885    4.8780 H         1 MOL         0.0640
@<TRIPOS>BOND
     1    1    6 1
     2    1    7 am
     3    1    8 2
     4    2    3 1
     5    2    4 1
     6    3    5 1
     7    4    7 1
     8    5    7 1
     9    2    9 1
    10    2   10 1
    11    3   11 1
    12    3   12 1
    13    4   13 1
    14    4   14 1
    15    5   15 1
    16    5   16 1
    17    6   17 1
    18    6   18 1
    19    6   19 1
