@<TRIPOS>MOLECULE
1-bromobutane
   14    13     0     0     0
SMALL
USER_CHARGES

@<TRIPOS>ATOM
      1 C1         -0.7538    0.4800   -1.7634 C.3       1 MOL        -0.0926
      2 C2          0.0333   -0.3376   -0.7515 C.3       1 MOL        -0.0812
      3 C3         -0.0289    0.2854    0.6426 C.3       1 MOL        -0.0819
      4 C4          0.7269   -0.5612    1.6525 C.3       1 MOL        -0.0072
      5 Br1         0.6726    0.2930    3.4008 Br        1 MOL        -0.1807
      6 H1         -1.8025    0.5711   -1.4633 H         1 MOL         0.0360
      7 H2         -0.3350    1.4877   -1.8442 H         1 MOL         0.0360
      8 H3         -0.7189    0.0169   -2.7547 H         1 MOL         0.0360
      9 H4          1.0764   -0.4095   -1.0810 H         1 MOL         0.0405
     10 H5         -0.3689   -1.3571   -0.7221 H         1 MOL         0.0405
     11 H6          0.3936    1.2976    0.6110 H         1 MOL         0.0558
     12 H7         -1.0767    0.3907    0.9508 H         1 MOL         0.0558
     13 H8          1.7829   -0.6672    1.3895 H         1 MOL         0.0716
     14 H9          0.2792   -1.5515    1.7744 H         1 MOL         0.0716
@<TRIPOS>BOND
     1    1    2 1
     2    2    3 1
     3    3    4 1
     4    4    5 1
     5    1    6 1
     6    1    7 1
     7    1    8 1
     8    2    9 1
     9    2   10 1
    10    3   11 1
    11    3   12 1
    12    4   13 1
    13    4   14 1
