@<TRIPOS>MOLECULE
2-chloropyridine
   11    11     0     0     0
SMALL
USER_CHARGES

@<TRIPOS>ATOM
      1 C1          1.3879   -0.0684    1.6522 C.ar      1 MOL        -0.0866
      2 C2          0.2265   -0.4197    0.9733 C.ar      1 MOL        -0.2472
      3 C3          1.6520   -0.6227    2.8997 C.ar      1 MOL        -0.2353
      4 C4         -0.6317   -1.3224    1.5803 C.ar      1 MOL         0.4078
      5 C5          0.7299   -1.5161    3.4206 C.ar      1 MOL         0.4891
      6 N1         -0.4092   -1.8816    2.7908 N.ar      1 MOL        -0.6549
      7 Cl1         0.9732   -2.2488    4.9527 Cl        1 MOL        -0.1514
      8 H1          2.0857    0.6366    1.2103 H         1 MOL         0.1431
      9 H2         -0.0002    0.0006    0.0001 H         1 MOL         0.1489
     10 H3          2.5552   -0.3545    3.4378 H         1 MOL         0.1572
     11 H4         -1.5510   -1.6287    1.0921 H         1 MOL         0.0292
@<TRIPOS>BOND
     1    1    2 ar
     2    1    3 ar
     3    2    4 ar
     4    3    5 ar
     5    4    6 ar
     6    5    6 ar
     7    5    7 1
     8    1    8 1
     9    2    9 1
    10    3   10 1
    11    4   11 1
