@<TRIPOS>MOLECULE
isobutyl nitrate
   17    16     0     0     0
SMALL
USER_CHARGES

@<TRIPOS>ATOM
      1 C1          0.9983   -0.3578   -0.2742 C.3       1 MOL        -0.0960
      2 C2          1.1578    1.1798   -2.2511 C.3       1 MOL        -0.0960
      3 C3          1.9991    1.9493   -0.0132 C.3       1 MOL         0.1203
      4 C4          1.8182    0.7470   -0.9439 C.3       1 MOL        -0.0731
      5 N1          2.8849    2.6095    2.0939 N.pl3     1 MOL         0.3748
      6 O1          2.4394    3.6859    1.6941 O.3       1 MOL        -0.1795
      7 O2          3.4658    2.3432    3.1486 O.2       1 MOL        -0.1795
      8 O3          2.6754    1.5475    1.1709 O.3       1 MOL        -0.3472
      9 H1         -0.0051    0.0026   -0.0230 H         1 MOL         0.0430
     10 H2          1.4754   -0.7007    0.6503 H         1 MOL         0.0430
     11 H3          0.8826   -1.2218   -0.9368 H         1 MOL         0.0430
     12 H4          0.1652    1.6031   -2.0643 H         1 MOL         0.0430
     13 H5          1.0346    0.3259   -2.9257 H         1 MOL         0.0430
     14 H6          1.7569    1.9371   -2.7683 H         1 MOL         0.0430
     15 H7          2.6000    2.7249   -0.4995 H         1 MOL         0.0743
     16 H8          1.0323    2.3812    0.2672 H         1 MOL         0.0743
     17 H9          2.8075    0.3294   -1.1709 H         1 MOL         0.0694
@<TRIPOS>BOND
     1    1    4 1
     2    2    4 1
     3    3    4 1
     4    3    8 1
     5    5    6 1
     6    5    7 2
     7    5    8 1
     8    1    9 1
     9    1   10 1
    10    1   11 1
    11    2   12 1
    12    2   13 1
    13    2   14 1
    14    3   15 1
    15    3   16 1
    16    4   17 1
