@<TRIPOS>MOLECULE
3-methylbutanoic acid
   17    16     0     0     0
SMALL
USER_CHARGES

@<TRIPOS>ATOM
      1 C1         -1.8485   -0.4578    1.2039 C.2       1 MOL         0.6412
      2 C2          1.0711    0.0457    1.7142 C.3       1 MOL        -0.1013
      3 C3          1.4318    0.2953   -0.7503 C.3       1 MOL        -0.1013
      4 C4         -0.9198    0.1609    0.1859 C.3       1 MOL        -0.1246
      5 C5          0.5338   -0.3162    0.3282 C.3       1 MOL        -0.0572
      6 O1         -1.7503   -1.5774    1.6832 O.2       1 MOL        -0.5505
      7 O2         -2.8146    0.4293    1.5550 O.3       1 MOL        -0.6190
      8 H1          1.0547    1.1301    1.8668 H         1 MOL         0.0433
      9 H2          2.1025   -0.2997    1.8441 H         1 MOL         0.0433
     10 H3          0.4592   -0.4099    2.5000 H         1 MOL         0.0433
     11 H4          1.4313    1.3892   -0.6945 H         1 MOL         0.0433
     12 H5          2.4655   -0.0471   -0.6323 H         1 MOL         0.0433
     13 H6          1.1022    0.0082   -1.7536 H         1 MOL         0.0433
     14 H7         -1.2895   -0.0739   -0.8193 H         1 MOL         0.0800
     15 H8         -0.9743    1.2466    0.3280 H         1 MOL         0.0800
     16 H9          0.5715   -1.4082    0.2266 H         1 MOL         0.0512
     17 H10        -3.4181    0.0618    2.2354 H         1 MOL         0.4417
@<TRIPOS>BOND
     1    1    4 1
     2    1    6 2
     3    1    7 1
     4    2    5 1
     5    3    5 1
     6    4    5 1
     7    2    8 1
     8    2    9 1
     9    2   10 1
    10    3   11 1
    11    3   12 1
    12    3   13 1
    13    4   14 1
    14    4   15 1
    15    5   16 1
    16    7   17 1
