@<TRIPOS>MOLECULE
N-propylpropan-1-amine
   22    21     0     0     0
SMALL
USER_CHARGES

@<TRIPOS>ATOM
      1 C1          1.0976    2.1286    0.4771 C.3       1 MOL        -0.0929
      2 C2          5.5654    1.0137   -5.4076 C.3       1 MOL        -0.0929
      3 C3          1.3094    1.3611   -0.8201 C.3       1 MOL        -0.0831
      4 C4          4.2504    0.6556   -4.7298 C.3       1 MOL        -0.0831
      5 C5          2.6189    1.7221   -1.5111 C.3       1 MOL         0.1683
      6 C6          4.0584    1.3745   -3.3999 C.3       1 MOL         0.1683
      7 N1          2.8015    1.0088   -2.7448 N.3       1 MOL        -0.8305
      8 H1          1.9092    1.9333    1.1853 H         1 MOL         0.0338
      9 H2          1.0740    3.2049    0.2782 H         1 MOL         0.0338
     10 H3          0.1511    1.8546    0.9529 H         1 MOL         0.0338
     11 H4          5.6262    2.0892   -5.6021 H         1 MOL         0.0338
     12 H5          6.4077    0.7381   -4.7648 H         1 MOL         0.0338
     13 H6          5.6816    0.4841   -6.3582 H         1 MOL         0.0338
     14 H7          0.4779    1.5840   -1.4988 H         1 MOL         0.0453
     15 H8          1.2782    0.2851   -0.6112 H         1 MOL         0.0453
     16 H9          4.2304   -0.4261   -4.5536 H         1 MOL         0.0453
     17 H10         3.4207    0.8894   -5.4074 H         1 MOL         0.0453
     18 H11         2.6325    2.7893   -1.7536 H         1 MOL         0.0264
     19 H12         3.4792    1.5076   -0.8693 H         1 MOL         0.0264
     20 H13         4.8669    1.1101   -2.7111 H         1 MOL         0.0264
     21 H14         4.0642    2.4612   -3.5311 H         1 MOL         0.0264
     22 H15         2.8109   -0.0030   -2.5723 H         1 MOL         0.3564
@<TRIPOS>BOND
     1    1    3 1
     2    2    4 1
     3    3    5 1
     4    4    6 1
     5    5    7 1
     6    6    7 1
     7    1    8 1
     8    1    9 1
     9    1   10 1
    10    2   11 1
    11    2   12 1
    12    2   13 1
    13    3   14 1
    14    3   15 1
    15    4   16 1
    16    4   17 1
    17    5   18 1
    18    5   19 1
    19    6   20 1
    20    6   21 1
    21    7   22 1
