@<TRIPOS>MOLECULE
hydrazine
    6     5     0     0     0
SMALL
USER_CHARGES

@<TRIPOS>ATOM
      1 N1         -0.8077    0.5696   -0.2485 N.3       1 MOL        -0.6712
      2 N2         -1.9600   -0.2578   -0.3168 N.3       1 MOL        -0.6711
      3 H1         -0.1702    0.3155   -1.0016 H         1 MOL         0.3356
      4 H2         -1.0788    1.5370   -0.4203 H         1 MOL         0.3356
      5 H3         -1.6753   -1.2346   -0.2568 H         1 MOL         0.3356
      6 H4         -2.3963   -0.1462   -1.2309 H         1 MOL         0.3356
@<TRIPOS>BOND
     1    1    2 1
     2    1    3 1
     3    1    4 1
     4    2    5 1
     5    2    6 1
