@<TRIPOS>MOLECULE
1,2,4,5-tetrachlorobenzene
   12    12     0     0     0
SMALL
USER_CHARGES

@<TRIPOS>ATOM
      1 C1          1.8851   -1.0363   -0.1124 C.ar      1 MOL        -0.1087
      2 C2          1.7997   -1.0786    2.6757 C.ar      1 MOL        -0.1086
      3 C3          0.8066   -0.4630    0.5610 C.ar      1 MOL         0.0229
      4 C4          2.9210   -1.6309    0.6081 C.ar      1 MOL         0.0229
      5 C5          0.7638   -0.4841    1.9551 C.ar      1 MOL         0.0229
      6 C6          2.8783   -1.6520    2.0022 C.ar      1 MOL         0.0229
      7 Cl1        -0.4461    0.2591   -0.3868 Cl        1 MOL        -0.0531
      8 Cl2         4.2304   -2.3241   -0.2829 Cl        1 MOL        -0.0531
      9 Cl3        -0.5450    0.2094    2.8467 Cl        1 MOL        -0.0531
     10 Cl4         4.1307   -2.3743    2.9502 Cl        1 MOL        -0.0531
     11 H1          1.9185   -1.0190   -1.2000 H         1 MOL         0.1692
     12 H2          1.7665   -1.0950    3.7633 H         1 MOL         0.1692
@<TRIPOS>BOND
     1    1    3 ar
     2    1    4 ar
     3    2    5 ar
     4    2    6 ar
     5    3    5 ar
     6    3    7 1
     7    4    6 ar
     8    4    8 1
     9    5    9 1
    10    6   10 1
    11    1   11 1
    12    2   12 1
