@<TRIPOS>MOLECULE
1,2,3-trichloro-5-(2,5-dichlorophenyl)benzene
   22    23     0     0     0
SMALL
USER_CHARGES

@<TRIPOS>ATOM
      1 C1         -2.2954    1.4200   -1.6248 C.ar      1 MOL        -0.1111
      2 C2         -2.3999    0.0630   -1.3193 C.ar      1 MOL        -0.1186
      3 C3          1.8851   -1.0363   -0.1124 C.ar      1 MOL        -0.0977
      4 C4          0.7638   -0.4841    1.9551 C.ar      1 MOL        -0.0977
      5 C5         -0.1632    1.5107   -0.4921 C.ar      1 MOL        -0.1009
      6 C6          0.8066   -0.4630    0.5610 C.ar      1 MOL        -0.0303
      7 C7         -0.2678    0.1538   -0.1865 C.ar      1 MOL        -0.0381
      8 C8         -1.1770    2.1438   -1.2113 C.ar      1 MOL         0.0143
      9 C9         -1.3862   -0.5701   -0.6001 C.ar      1 MOL         0.0299
     10 C10         2.9210   -1.6309    0.6081 C.ar      1 MOL         0.0211
     11 C11         1.7997   -1.0786    2.6757 C.ar      1 MOL         0.0211
     12 C12         2.8783   -1.6520    2.0022 C.ar      1 MOL         0.0215
     13 Cl1        -1.0503    3.8187   -1.5867 Cl        1 MOL        -0.0791
     14 Cl2        -1.5687   -2.2542   -0.2503 Cl        1 MOL        -0.0704
     15 Cl3         4.2249   -2.3222   -0.2962 Cl        1 MOL        -0.0581
     16 Cl4         1.6774   -1.0662    4.4017 Cl        1 MOL        -0.0581
     17 Cl5         4.1688   -2.3929    2.9000 Cl        1 MOL        -0.0419
     18 H1         -3.0939    1.9001   -2.1847 H         1 MOL         0.1540
     19 H2         -3.2782   -0.4860   -1.6496 H         1 MOL         0.1557
     20 H3          1.9157   -1.0185   -1.2005 H         1 MOL         0.1624
     21 H4         -0.0791   -0.0354    2.4780 H         1 MOL         0.1624
     22 H5          0.7077    2.0788   -0.1702 H         1 MOL         0.1599
@<TRIPOS>BOND
     1    1    2 ar
     2    1    8 ar
     3    2    9 ar
     4    3    6 ar
     5    3   10 ar
     6    4    6 ar
     7    4   11 ar
     8    5    7 ar
     9    5    8 ar
    10    6    7 1
    11    7    9 ar
    12    8   13 1
    13    9   14 1
    14   10   12 ar
    15   10   15 1
    16   11   12 ar
    17   11   16 1
    18   12   17 1
    19    1   18 1
    20    2   19 1
    21    3   20 1
    22    4   21 1
    23    5   22 1
