@<TRIPOS>MOLECULE
2,3-dimethylbutane
   20    19     0     0     0
SMALL
USER_CHARGES

@<TRIPOS>ATOM
      1 C1          0.5108   -0.7952    0.5544 C.3       1 MOL        -0.0896
      2 C2          0.2493    0.5315    2.6603 C.3       1 MOL        -0.0895
      3 C3          1.2273   -2.3856    3.1709 C.3       1 MOL        -0.0895
      4 C4          3.2006   -1.8542    1.7262 C.3       1 MOL        -0.0895
      5 C5          1.2455   -0.2135    1.7653 C.3       1 MOL        -0.0615
      6 C6          2.0681   -1.2569    2.5683 C.3       1 MOL        -0.0615
      7 H1         -0.2170   -1.5576    0.8485 H         1 MOL         0.0332
      8 H2         -0.0356   -0.0068    0.0248 H         1 MOL         0.0332
      9 H3          1.2068   -1.2418   -0.1614 H         1 MOL         0.0332
     10 H4         -0.4890   -0.1644    3.0737 H         1 MOL         0.0332
     11 H5          0.7460    1.0231    3.5025 H         1 MOL         0.0332
     12 H6         -0.2956    1.2917    2.0911 H         1 MOL         0.0332
     13 H7          0.7183   -2.9652    2.3955 H         1 MOL         0.0332
     14 H8          1.8357   -3.0707    3.7697 H         1 MOL         0.0332
     15 H9          0.4525   -1.9750    3.8285 H         1 MOL         0.0332
     16 H10         2.8191   -2.4084    0.8628 H         1 MOL         0.0332
     17 H11         3.7982   -2.5494    2.3263 H         1 MOL         0.0332
     18 H12         3.8727   -1.0702    1.3620 H         1 MOL         0.0332
     19 H13         1.9519    0.5380    1.3867 H         1 MOL         0.0416
     20 H14         2.5440   -0.7248    3.4034 H         1 MOL         0.0416
@<TRIPOS>BOND
     1    1    5 1
     2    2    5 1
     3    3    6 1
     4    4    6 1
     5    5    6 1
     6    1    7 1
     7    1    8 1
     8    1    9 1
     9    2   10 1
    10    2   11 1
    11    2   12 1
    12    3   13 1
    13    3   14 1
    14    3   15 1
    15    4   16 1
    16    4   17 1
    17    4   18 1
    18    5   19 1
    19    6   20 1
