@<TRIPOS>MOLECULE
3-ethylphenol
   19    19     0     0     0
SMALL
USER_CHARGES

@<TRIPOS>ATOM
      1 C1          1.8851   -1.0363   -0.1124 C.ar      1 MOL        -0.0949
      2 C2          0.8066   -0.4630    0.5610 C.ar      1 MOL        -0.1632
      3 C3          2.9210   -1.6309    0.6081 C.ar      1 MOL        -0.1604
      4 C4          1.7997   -1.0786    2.6757 C.ar      1 MOL        -0.2128
      5 C5          0.7638   -0.4841    1.9551 C.ar      1 MOL        -0.0383
      6 C6          2.8783   -1.6520    2.0022 C.ar      1 MOL         0.1248
      7 C7         -0.1564    1.6038    2.9945 C.3       1 MOL        -0.0894
      8 C8         -0.3892    0.1293    2.6750 C.3       1 MOL        -0.0410
      9 O1          3.8889   -2.2327    2.7053 O.3       1 MOL        -0.4984
     10 H1          1.9181   -1.0203   -1.1978 H         1 MOL         0.1346
     11 H2          0.0044   -0.0017   -0.0089 H         1 MOL         0.1326
     12 H3          3.7583   -2.0757    0.0777 H         1 MOL         0.1487
     13 H4          1.7692   -1.0964    3.7626 H         1 MOL         0.1329
     14 H5          0.7541    1.7380    3.5884 H         1 MOL         0.0370
     15 H6         -0.9961    2.0142    3.5639 H         1 MOL         0.0370
     16 H7         -0.0487    2.1922    2.0770 H         1 MOL         0.0370
     17 H8         -1.3105    0.0316    2.0784 H         1 MOL         0.0479
     18 H9         -0.5903   -0.4145    3.6120 H         1 MOL         0.0479
     19 H10         3.7161   -2.1679    3.6580 H         1 MOL         0.4179
@<TRIPOS>BOND
     1    1    2 ar
     2    1    3 ar
     3    2    5 ar
     4    3    6 ar
     5    4    5 ar
     6    4    6 ar
     7    5    8 1
     8    6    9 1
     9    7    8 1
    10    1   10 1
    11    2   11 1
    12    3   12 1
    13    4   13 1
    14    7   14 1
    15    7   15 1
    16    7   16 1
    17    8   17 1
    18    8   18 1
    19    9   19 1
