@<TRIPOS>MOLECULE
2,6-dinitro-N,N-dipropyl-4-(trifluoromethyl)aniline
   39    39     0     0     0
SMALL
USER_CHARGES

@<TRIPOS>ATOM
      1 C1          4.6698   -2.1858   -2.7602 C.ar      1 MOL        -0.0162
      2 C2          2.3014   -2.6565   -2.8374 C.ar      1 MOL        -0.0162
      3 C3          3.6219   -3.1050   -2.8095 C.ar      1 MOL        -0.1735
      4 C4          3.0768   -0.3694   -2.7666 C.ar      1 MOL         0.2988
      5 C5          4.3973   -0.8179   -2.7387 C.ar      1 MOL        -0.1755
      6 C6          2.0288   -1.2886   -2.8160 C.ar      1 MOL        -0.1755
      7 C7          1.0403    3.1267   -0.1085 C.3       1 MOL        -0.0914
      8 C8          3.6474    3.6439   -5.4083 C.3       1 MOL        -0.0914
      9 C9          1.2347    2.3505   -1.4033 C.3       1 MOL        -0.1088
     10 C10         3.7494    2.8579   -4.1089 C.3       1 MOL        -0.1088
     11 C11         2.6189    1.7221   -1.5111 C.3       1 MOL         0.2373
     12 C12         2.7100    1.7478   -4.0090 C.3       1 MOL         0.2373
     13 C13         3.9131   -4.5676   -2.8333 C.3       1 MOL         0.6947
     14 N1          2.8015    1.0088   -2.7448 N.pl3     1 MOL        -0.7869
     15 N2          5.4868    0.0968   -2.6874 N.pl3     1 MOL         0.3198
     16 N3          0.6714   -0.8610   -2.8458 N.pl3     1 MOL         0.3198
     17 O1          5.9808    0.5093   -3.7625 O.3       1 MOL        -0.1785
     18 O2          0.0637   -0.7026   -1.7614 O.3       1 MOL        -0.1785
     19 O3          5.9181    0.4611   -1.5687 O.2       1 MOL        -0.1785
     20 O4          0.1263   -0.6563   -3.9553 O.2       1 MOL        -0.1785
     21 F1          5.2469   -4.8608   -2.8025 F         1 MOL        -0.2245
     22 F2          3.3743   -5.2495   -1.7796 F         1 MOL        -0.2245
     23 F3          3.4293   -5.1811   -3.9524 F         1 MOL        -0.2245
     24 H1          5.6980   -2.5410   -2.7398 H         1 MOL         0.1831
     25 H2          1.4884   -3.3785   -2.8752 H         1 MOL         0.1831
     26 H3          1.1766    2.4775    0.7622 H         1 MOL         0.0380
     27 H4          1.7716    3.9387   -0.0428 H         1 MOL         0.0380
     28 H5          0.0412    3.5701   -0.0552 H         1 MOL         0.0380
     29 H6          3.7806    2.9883   -6.2748 H         1 MOL         0.0380
     30 H7          2.6618    4.1137   -5.4879 H         1 MOL         0.0380
     31 H8          4.4012    4.4358   -5.4559 H         1 MOL         0.0380
     32 H9          1.0900    3.0350   -2.2472 H         1 MOL         0.0545
     33 H10         0.4626    1.5755   -1.4780 H         1 MOL         0.0545
     34 H11         3.6108    3.5492   -3.2696 H         1 MOL         0.0545
     35 H12         4.7584    2.4380   -4.0202 H         1 MOL         0.0545
     36 H13         3.3874    2.5006   -1.4750 H         1 MOL         0.0530
     37 H14         2.8031    1.0231   -0.6892 H         1 MOL         0.0530
     38 H15         1.7025    2.1725   -4.0590 H         1 MOL         0.0530
     39 H16         2.8174    1.0281   -4.8266 H         1 MOL         0.0530
@<TRIPOS>BOND
     1    1    3 ar
     2    1    5 ar
     3    2    3 ar
     4    2    6 ar
     5    3   13 1
     6    4    5 ar
     7    4    6 ar
     8    4   14 1
     9    5   15 1
    10    6   16 1
    11    7    9 1
    12    8   10 1
    13    9   11 1
    14   10   12 1
    15   11   14 1
    16   12   14 1
    17   13   21 1
    18   13   22 1
    19   13   23 1
    20   15   17 1
    21   15   19 2
    22   16   18 1
    23   16   20 2
    24    1   24 1
    25    2   25 1
    26    7   26 1
    27    7   27 1
    28    7   28 1
    29    8   29 1
    30    8   30 1
    31    8   31 1
    32    9   32 1
    33    9   33 1
    34   10   34 1
    35   10   35 1
    36   11   36 1
    37   11   37 1
    38   12   38 1
    39   12   39 1
