@<TRIPOS>MOLECULE
3-(5,6-dihydrodibenzo[1,2-d:2',1'-f][7]annulen-11-ylidene)-N,N-dimethyl-propan-1-amine
   44    46     0     0     0
SMALL
USER_CHARGES

@<TRIPOS>ATOM
      1 C1          5.1335   -5.2266    2.6098 C.ar      1 MOL        -0.1342
      2 C2          0.6084   -0.7918   -0.4271 C.ar      1 MOL        -0.1342
      3 C3          6.1545   -5.1701    1.6742 C.ar      1 MOL        -0.1250
      4 C4          1.0415   -0.7021   -1.7474 C.ar      1 MOL        -0.1250
      5 C5          3.8346   -4.8810    2.2381 C.ar      1 MOL        -0.1188
      6 C6          0.9570   -1.8977    0.3477 C.ar      1 MOL        -0.1188
      7 C7          5.8727   -4.7647    0.3714 C.ar      1 MOL        -0.1349
      8 C8          1.8263   -1.7166   -2.2954 C.ar      1 MOL        -0.1349
      9 C9          3.5225   -4.4848    0.9186 C.ar      1 MOL        -0.0391
     10 C10         1.7423   -2.9254   -0.1966 C.ar      1 MOL        -0.0391
     11 C11         4.5638   -4.4198   -0.0338 C.ar      1 MOL        -0.0599
     12 C12         2.1842   -2.8333   -1.5268 C.ar      1 MOL        -0.0599
     13 C13         2.1181   -4.1029    0.6141 C.2       1 MOL        -0.0152
     14 C14         1.1124   -4.9097    1.0052 C.2       1 MOL        -0.1461
     15 C15         4.4302   -3.9644   -1.4762 C.3       1 MOL        -0.0323
     16 C16         3.0419   -3.9235   -2.1164 C.3       1 MOL        -0.0323
     17 C17        -3.4106   -6.7522    0.8468 C.3       1 MOL         0.1593
     18 C18        -2.8258   -5.2620   -0.9447 C.3       1 MOL         0.1593
     19 C19        -0.3325   -4.6184    0.7493 C.3       1 MOL        -0.0583
     20 C20        -1.1743   -5.8891    0.6838 C.3       1 MOL         0.1757
     21 N1         -2.5672   -5.6101    0.4611 N.3       1 MOL        -0.7420
     22 H1          5.3412   -5.5466    3.6265 H         1 MOL         0.1327
     23 H2         -0.0021   -0.0013   -0.0006 H         1 MOL         0.1327
     24 H3          7.1666   -5.4487    1.9513 H         1 MOL         0.1308
     25 H4          0.7660    0.1572   -2.3519 H         1 MOL         0.1308
     26 H5          3.0585   -4.9382    2.9996 H         1 MOL         0.1315
     27 H6          0.6079   -1.9505    1.3765 H         1 MOL         0.1315
     28 H7          6.6917   -4.7205   -0.3447 H         1 MOL         0.1295
     29 H8          2.1540   -1.6308   -3.3283 H         1 MOL         0.1295
     30 H9          1.3629   -5.8143    1.5439 H         1 MOL         0.1264
     31 H10         4.8280   -2.9418   -1.5350 H         1 MOL         0.0531
     32 H11         5.0901   -4.5974   -2.0849 H         1 MOL         0.0531
     33 H12         2.5566   -4.8946   -1.9547 H         1 MOL         0.0531
     34 H13         3.1086   -3.8020   -3.2048 H         1 MOL         0.0531
     35 H14        -3.2264   -7.0197    1.8906 H         1 MOL         0.0302
     36 H15        -3.1863   -7.6174    0.2170 H         1 MOL         0.0302
     37 H16        -4.4675   -6.4982    0.7298 H         1 MOL         0.0302
     38 H17        -2.2039   -4.4137   -1.2422 H         1 MOL         0.0302
     39 H18        -3.8768   -4.9924   -1.0802 H         1 MOL         0.0302
     40 H19        -2.5956   -6.1117   -1.5931 H         1 MOL         0.0302
     41 H20        -0.4613   -4.0396   -0.1736 H         1 MOL         0.0627
     42 H21        -0.6986   -3.9920    1.5715 H         1 MOL         0.0627
     43 H22        -1.1050   -6.4329    1.6314 H         1 MOL         0.0307
     44 H23        -0.8360   -6.5563   -0.1160 H         1 MOL         0.0307
@<TRIPOS>BOND
     1    1    3 ar
     2    1    5 ar
     3    2    4 ar
     4    2    6 ar
     5    3    7 ar
     6    4    8 ar
     7    5    9 ar
     8    6   10 ar
     9    7   11 ar
    10    8   12 ar
    11    9   11 ar
    12    9   13 1
    13   10   12 ar
    14   10   13 1
    15   11   15 1
    16   12   16 1
    17   13   14 2
    18   14   19 1
    19   15   16 1
    20   17   21 1
    21   18   21 1
    22   19   20 1
    23   20   21 1
    24    1   22 1
    25    2   23 1
    26    3   24 1
    27    4   25 1
    28    5   26 1
    29    6   27 1
    30    7   28 1
    31    8   29 1
    32   14   30 1
    33   15   31 1
    34   15   32 1
    35   16   33 1
    36   16   34 1
    37   17   35 1
    38   17   36 1
    39   17   37 1
    40   18   38 1
    41   18   39 1
    42   18   40 1
    43   19   41 1
    44   19   42 1
    45   20   43 1
    46   20   44 1
