@<TRIPOS>MOLECULE
hex-1-yne
   16    15     0     0     0
SMALL
USER_CHARGES

@<TRIPOS>ATOM
      1 C1          1.7561    2.1241   -2.3553 C.1       1 MOL        -0.1648
      2 C2          1.5664    1.3722   -1.4388 C.1       1 MOL        -0.1357
      3 C3         -1.8718   -1.1293    1.1779 C.3       1 MOL        -0.0920
      4 C4          1.3383    0.4520   -0.3161 C.3       1 MOL        -0.0044
      5 C5         -0.3928   -0.8182    1.0126 C.3       1 MOL        -0.0827
      6 C6         -0.1448    0.1090   -0.1772 C.3       1 MOL        -0.0725
      7 H1          1.9241    2.7913   -3.1681 H         1 MOL         0.1630
      8 H2         -2.2651   -1.5953    0.2691 H         1 MOL         0.0327
      9 H3         -2.4459   -0.2166    1.3675 H         1 MOL         0.0327
     10 H4         -2.0369   -1.8188    2.0120 H         1 MOL         0.0327
     11 H5          1.9187   -0.4649   -0.4716 H         1 MOL         0.0580
     12 H6          1.7023    0.9097    0.6112 H         1 MOL         0.0580
     13 H7         -0.0185   -0.3528    1.9319 H         1 MOL         0.0433
     14 H8          0.1585   -1.7558    0.8755 H         1 MOL         0.0433
     15 H9         -0.5029   -0.3697   -1.0978 H         1 MOL         0.0443
     16 H10        -0.7289    1.0302   -0.0538 H         1 MOL         0.0443
@<TRIPOS>BOND
     1    1    2 3
     2    2    4 1
     3    3    5 1
     4    4    6 1
     5    5    6 1
     6    1    7 1
     7    3    8 1
     8    3    9 1
     9    3   10 1
    10    4   11 1
    11    4   12 1
    12    5   13 1
    13    5   14 1
    14    6   15 1
    15    6   16 1
