@<TRIPOS>MOLECULE
ethanethiol
    9     8     0     0     0
SMALL
USER_CHARGES

@<TRIPOS>ATOM
      1 C1          0.4412   -0.3496    0.9395 C.3       1 MOL        -0.0992
      2 C2          1.8518   -0.8681    0.7340 C.3       1 MOL         0.0071
      3 S1          2.9258    0.4446    0.0921 S.3       1 MOL        -0.3830
      4 H1          0.4191    0.4857    1.6477 H         1 MOL         0.0433
      5 H2         -0.0075   -0.0190   -0.0033 H         1 MOL         0.0433
      6 H3         -0.1923   -1.1447    1.3466 H         1 MOL         0.0433
      7 H4          1.8501   -1.7008    0.0240 H         1 MOL         0.0722
      8 H5          2.2645   -1.2294    1.6807 H         1 MOL         0.0722
      9 H6          2.2273    0.6661   -1.0299 H         1 MOL         0.2007
@<TRIPOS>BOND
     1    1    2 1
     2    2    3 1
     3    1    4 1
     4    1    5 1
     5    1    6 1
     6    2    7 1
     7    2    8 1
     8    3    9 1
