@<TRIPOS>MOLECULE
N-methylaniline
   17    17     0     0     0
SMALL
USER_CHARGES

@<TRIPOS>ATOM
      1 C1          1.8851   -1.0363   -0.1124 C.ar      1 MOL        -0.1733
      2 C2          0.8066   -0.4630    0.5610 C.ar      1 MOL        -0.0947
      3 C3          2.9210   -1.6309    0.6081 C.ar      1 MOL        -0.0947
      4 C4          0.7638   -0.4841    1.9551 C.ar      1 MOL        -0.1886
      5 C5          2.8783   -1.6520    2.0022 C.ar      1 MOL        -0.1886
      6 C6          1.7997   -1.0786    2.6757 C.ar      1 MOL         0.1531
      7 C7          2.9333   -1.0911    4.8984 C.3       1 MOL         0.1844
      8 N1          1.7568   -1.1003    4.0852 N.pl3     1 MOL        -0.7508
      9 H1          1.9184   -1.0196   -1.1980 H         1 MOL         0.1280
     10 H2          0.0003   -0.0001   -0.0001 H         1 MOL         0.1298
     11 H3          3.7609   -2.0773    0.0835 H         1 MOL         0.1298
     12 H4         -0.0810   -0.0346    2.4703 H         1 MOL         0.1301
     13 H5          3.6911   -2.1183    2.5532 H         1 MOL         0.1301
     14 H6          3.8257   -1.0641    4.2677 H         1 MOL         0.0356
     15 H7          2.9694   -1.9892    5.5210 H         1 MOL         0.0356
     16 H8          2.9358   -0.2129    5.5496 H         1 MOL         0.0356
     17 H9          0.8499   -1.1243    4.5119 H         1 MOL         0.3986
@<TRIPOS>BOND
     1    1    2 ar
     2    1    3 ar
     3    2    4 ar
     4    3    5 ar
     5    4    6 ar
     6    5    6 ar
     7    6    8 1
     8    7    8 1
     9    1    9 1
    10    2   10 1
    11    3   11 1
    12    4   12 1
    13    5   13 1
    14    7   14 1
    15    7   15 1
    16    7   16 1
    17    8   17 1
