@<TRIPOS>MOLECULE
1-methyl-2-nitro-benzene
   17    17     0     0     0
SMALL
USER_CHARGES

@<TRIPOS>ATOM
      1 C1          1.8851   -1.0363   -0.1124 C.ar      1 MOL        -0.0988
      2 C2          0.8066   -0.4630    0.5610 C.ar      1 MOL        -0.1309
      3 C3          2.9210   -1.6309    0.6081 C.ar      1 MOL        -0.1308
      4 C4          0.7638   -0.4841    1.9551 C.ar      1 MOL        -0.0842
      5 C5          2.8783   -1.6520    2.0022 C.ar      1 MOL        -0.0222
      6 C6          1.7997   -1.0786    2.6757 C.ar      1 MOL        -0.1489
      7 C7          4.0050   -2.2955    2.7442 C.3       1 MOL        -0.0736
      8 N1          1.7360   -1.0868    4.0965 N.pl3     1 MOL         0.3050
      9 O1          1.1798   -2.0516    4.6723 O.3       1 MOL        -0.1969
     10 O2          2.2381   -0.1292    4.7308 O.2       1 MOL        -0.1969
     11 H1          1.9185   -1.0201   -1.1979 H         1 MOL         0.1435
     12 H2          0.0009    0.0015   -0.0000 H         1 MOL         0.1469
     13 H3          3.7559   -2.0758    0.0732 H         1 MOL         0.1464
     14 H4         -0.0826   -0.0323    2.4667 H         1 MOL         0.1563
     15 H5          4.7858   -1.5579    2.9610 H         1 MOL         0.0617
     16 H6          3.6589   -2.7282    3.6905 H         1 MOL         0.0617
     17 H7          4.4466   -3.1125    2.1610 H         1 MOL         0.0617
@<TRIPOS>BOND
     1    1    2 ar
     2    1    3 ar
     3    2    4 ar
     4    3    5 ar
     5    4    6 ar
     6    5    6 ar
     7    5    7 1
     8    6    8 1
     9    8    9 1
    10    8   10 2
    11    1   11 1
    12    2   12 1
    13    3   13 1
    14    4   14 1
    15    7   15 1
    16    7   16 1
    17    7   17 1
