@<TRIPOS>MOLECULE
heptanal
   22    21     0     0     0
SMALL
USER_CHARGES

@<TRIPOS>ATOM
      1 C1          3.9871   -0.7779    0.6849 C.2       1 MOL         0.5631
      2 C2         -3.5184   -0.1737    0.1176 C.3       1 MOL        -0.0928
      3 C3          2.8539   -0.1863   -0.1117 C.3       1 MOL        -0.1979
      4 C4         -2.1798    0.2447   -0.4690 C.3       1 MOL        -0.0795
      5 C5          1.4998   -0.5915    0.4617 C.3       1 MOL        -0.0767
      6 C6         -1.0132   -0.3836    0.2930 C.3       1 MOL        -0.0796
      7 C7          0.3307    0.0137   -0.3211 C.3       1 MOL        -0.0775
      8 O1          3.8196   -1.4449    1.7011 O.2       1 MOL        -0.5236
      9 H1          5.0033   -0.5422    0.3251 H         1 MOL        -0.0107
     10 H2         -3.6177   -1.2635    0.0958 H         1 MOL         0.0331
     11 H3         -4.3481    0.2547   -0.4536 H         1 MOL         0.0331
     12 H4         -3.6108    0.1550    1.1576 H         1 MOL         0.0331
     13 H5          2.9601    0.9030   -0.1414 H         1 MOL         0.0660
     14 H6          2.9487   -0.5642   -1.1353 H         1 MOL         0.0660
     15 H7         -2.0996    1.3375   -0.4382 H         1 MOL         0.0379
     16 H8         -2.1401   -0.0539   -1.5230 H         1 MOL         0.0379
     17 H9          1.4221   -1.6850    0.4344 H         1 MOL         0.0536
     18 H10         1.4321   -0.2900    1.5141 H         1 MOL         0.0536
     19 H11        -1.0458   -0.0656    1.3422 H         1 MOL         0.0422
     20 H12        -1.1136   -1.4757    0.2829 H         1 MOL         0.0422
     21 H13         0.3722   -0.3259   -1.3633 H         1 MOL         0.0382
     22 H14         0.4153    1.1068   -0.3337 H         1 MOL         0.0382
@<TRIPOS>BOND
     1    1    3 1
     2    1    8 2
     3    2    4 1
     4    3    5 1
     5    4    6 1
     6    5    7 1
     7    6    7 1
     8    1    9 1
     9    2   10 1
    10    2   11 1
    11    2   12 1
    12    3   13 1
    13    3   14 1
    14    4   15 1
    15    4   16 1
    16    5   17 1
    17    5   18 1
    18    6   19 1
    19    6   20 1
    20    7   21 1
    21    7   22 1
