@<TRIPOS>MOLECULE
2-ethoxyethyl acetate
   21    20     0     0     0
SMALL
USER_CHARGES

@<TRIPOS>ATOM
      1 C1         -1.7214    2.9131   -3.5289 C.2       1 MOL         0.6370
      2 C2         -2.1176    4.2471   -4.0853 C.3       1 MOL        -0.1501
      3 C3         -6.9498    0.8934   -0.9347 C.3       1 MOL        -0.0981
      4 C4         -6.0541    0.1086   -1.8694 C.3       1 MOL         0.1320
      5 C5         -2.5898    0.8104   -2.8899 C.3       1 MOL         0.1400
      6 C6         -3.9063    0.0606   -2.8220 C.3       1 MOL         0.1260
      7 O1         -0.5741    2.6072   -3.2336 O.2       1 MOL        -0.5350
      8 O2         -2.8256    2.1218   -3.4119 O.3       1 MOL        -0.4556
      9 O3         -4.7925    0.7566   -1.9539 O.3       1 MOL        -0.4231
     10 H1         -2.0643    4.2244   -5.1765 H         1 MOL         0.0766
     11 H2         -1.4641    5.0255   -3.6834 H         1 MOL         0.0766
     12 H3         -3.1470    4.4715   -3.7911 H         1 MOL         0.0766
     13 H4         -6.5168    0.9461    0.0680 H         1 MOL         0.0463
     14 H5         -7.1006    1.9114   -1.3087 H         1 MOL         0.0463
     15 H6         -7.9393    0.4290   -0.8682 H         1 MOL         0.0463
     16 H7         -6.4929    0.0597   -2.8704 H         1 MOL         0.0260
     17 H8         -5.9038   -0.9079   -1.4938 H         1 MOL         0.0260
     18 H9         -1.8805    0.3029   -3.5509 H         1 MOL         0.0645
     19 H10        -2.1553    0.9121   -1.8912 H         1 MOL         0.0645
     20 H11        -3.7651   -0.9500   -2.4262 H         1 MOL         0.0385
     21 H12        -4.3681    0.0074   -3.8123 H         1 MOL         0.0385
@<TRIPOS>BOND
     1    1    2 1
     2    1    7 2
     3    1    8 1
     4    3    4 1
     5    4    9 1
     6    5    6 1
     7    5    8 1
     8    6    9 1
     9    2   10 1
    10    2   11 1
    11    2   12 1
    12    3   13 1
    13    3   14 1
    14    3   15 1
    15    4   16 1
    16    4   17 1
    17    5   18 1
    18    5   19 1
    19    6   20 1
    20    6   21 1
