@<TRIPOS>MOLECULE
3-nitrooxypropyl nitrate
   17    16     0     0     0
SMALL
USER_CHARGES

@<TRIPOS>ATOM
      1 C1          0.7769   -0.0127   -0.7752 C.3       1 MOL        -0.0894
      2 C2          0.3977    0.9315   -1.9041 C.3       1 MOL         0.1274
      3 C3          0.9970   -1.4335   -1.2704 C.3       1 MOL         0.1274
      4 N1         -0.1359    3.2069   -2.3492 N.pl3     1 MOL         0.3769
      5 N2          1.5929   -3.6244   -0.5596 N.pl3     1 MOL         0.3769
      6 O1         -0.2296    2.7331   -3.4822 O.3       1 MOL        -0.1729
      7 O2          1.4258   -3.8208   -1.7640 O.3       1 MOL        -0.1729
      8 O3         -0.3063    4.3667   -1.9666 O.2       1 MOL        -0.1729
      9 O4          1.9183   -4.4168    0.3275 O.2       1 MOL        -0.1729
     10 O5          0.2231    2.2373   -1.3719 O.3       1 MOL        -0.3436
     11 O6          1.3667   -2.2713   -0.1834 O.3       1 MOL        -0.3436
     12 H1          1.6790    0.3515   -0.2672 H         1 MOL         0.0860
     13 H2          0.0000    0.0000    0.0000 H         1 MOL         0.0860
     14 H3          1.1846    0.9677   -2.6642 H         1 MOL         0.0719
     15 H4         -0.5395    0.6195   -2.3760 H         1 MOL         0.0719
     16 H5          1.8020   -1.4678   -2.0110 H         1 MOL         0.0719
     17 H6          0.0904   -1.8407   -1.7295 H         1 MOL         0.0719
@<TRIPOS>BOND
     1    1    2 1
     2    1    3 1
     3    2   10 1
     4    3   11 1
     5    4    6 1
     6    4    8 2
     7    4   10 1
     8    5    7 1
     9    5    9 2
    10    5   11 1
    11    1   12 1
    12    1   13 1
    13    2   14 1
    14    2   15 1
    15    3   16 1
    16    3   17 1
