@<TRIPOS>MOLECULE
(3S)-1,3-bis[(dioxidoamino)oxy]butane
   20    19     0     0     0
SMALL
USER_CHARGES

@<TRIPOS>ATOM
      1 C1          0.3872    0.7577   -0.5495 C.3       1 MOL        -0.1151
      2 C2          1.4087   -0.7635   -2.2846 C.3       1 MOL        -0.1600
      3 C3          1.5600   -1.0781   -3.7687 C.3       1 MOL         0.3284
      4 C4          0.5699    0.4916   -2.0374 C.3       1 MOL         0.3089
      5 N1          2.5394   -2.6495   -5.2625 N.3       1 MOL        -0.0085
      6 N2         -1.3553    1.5880   -2.9044 N.3       1 MOL         0.0006
      7 O1          3.2120   -3.6759   -5.3697 O.3       1 MOL        -0.4856
      8 O2          2.0401   -1.9427   -6.1412 O.3       1 MOL        -0.4856
      9 O3         -2.4639    1.4493   -3.4229 O.3       1 MOL        -0.4903
     10 O4         -0.7550    2.6213   -2.5993 O.3       1 MOL        -0.4903
     11 O5          2.3347   -2.2614   -3.9093 O.3       1 MOL        -0.8994
     12 O6         -0.7144    0.3479   -2.6377 O.3       1 MOL        -0.9047
     13 H1         -0.0935   -0.0891   -0.0503 H         1 MOL        -0.0342
     14 H2         -0.2196    1.6542   -0.3814 H         1 MOL        -0.0342
     15 H3          1.3564    0.9402   -0.0731 H         1 MOL        -0.0342
     16 H4          2.4032   -0.6500   -1.8355 H         1 MOL        -0.0337
     17 H5          0.9485   -1.6308   -1.7934 H         1 MOL        -0.0337
     18 H6          0.5865   -1.2453   -4.2398 H         1 MOL        -0.1591
     19 H7          2.0731   -0.2632   -4.2891 H         1 MOL        -0.1591
     20 H8          1.0526    1.3593   -2.5002 H         1 MOL        -0.1102
@<TRIPOS>BOND
     1    1    4 1
     2    2    3 1
     3    2    4 1
     4    3   11 1
     5    4   12 1
     6    5    7 1
     7    5    8 1
     8    5   11 1
     9    6    9 1
    10    6   10 1
    11    6   12 1
    12    1   13 1
    13    1   14 1
    14    1   15 1
    15    2   16 1
    16    2   17 1
    17    3   18 1
    18    3   19 1
    19    4   20 1
