@<TRIPOS>MOLECULE
butyl 4-hydroxybenzoate
   28    28     0     0     0
SMALL
USER_CHARGES

@<TRIPOS>ATOM
      1 C1         -5.5939   -3.2691   -3.6071 C.ar      1 MOL        -0.0524
      2 C2         -6.5308   -2.7248   -1.4477 C.ar      1 MOL        -0.0524
      3 C3         -6.8594   -3.1607   -4.1835 C.ar      1 MOL        -0.1898
      4 C4         -7.7963   -2.6164   -2.0241 C.ar      1 MOL        -0.1898
      5 C5         -5.4295   -3.0512   -2.2391 C.ar      1 MOL        -0.1485
      6 C6         -7.9606   -2.8344   -3.3920 C.ar      1 MOL         0.1439
      7 C7         -4.0825   -3.1663   -1.6254 C.2       1 MOL         0.6504
      8 C8         -2.1122   -2.3902    4.1564 C.3       1 MOL        -0.0929
      9 C9         -1.8649   -2.7393    2.6975 C.3       1 MOL        -0.0785
     10 C10        -3.1547   -2.6879    1.8837 C.3       1 MOL        -0.1162
     11 C11        -2.9046   -2.9946    0.4140 C.3       1 MOL         0.1390
     12 O1         -3.0786   -3.4482   -2.2611 O.2       1 MOL        -0.5293
     13 O2         -9.1956   -2.7287   -3.9542 O.3       1 MOL        -0.4925
     14 O3         -4.1377   -2.9159   -0.2877 O.3       1 MOL        -0.4317
     15 H1         -4.7430   -3.5237   -4.2338 H         1 MOL         0.1458
     16 H2         -6.4132   -2.5529   -0.3808 H         1 MOL         0.1458
     17 H3         -6.9810   -3.3318   -5.2496 H         1 MOL         0.1489
     18 H4         -8.6505   -2.3622   -1.4024 H         1 MOL         0.1489
     19 H5         -2.8410   -3.0728    4.6051 H         1 MOL         0.0337
     20 H6         -1.1853   -2.4474    4.7360 H         1 MOL         0.0337
     21 H7         -2.5037   -1.3717    4.2412 H         1 MOL         0.0337
     22 H8         -1.1326   -2.0389    2.2793 H         1 MOL         0.0415
     23 H9         -1.4259   -3.7420    2.6374 H         1 MOL         0.0415
     24 H10        -3.8856   -3.4013    2.2844 H         1 MOL         0.0606
     25 H11        -3.6215   -1.6989    1.9739 H         1 MOL         0.0606
     26 H12        -2.2086   -2.2716   -0.0231 H         1 MOL         0.0615
     27 H13        -2.4969   -4.0028    0.2890 H         1 MOL         0.0615
     28 H14        -9.1480   -2.9078   -4.9068 H         1 MOL         0.4229
@<TRIPOS>BOND
     1    1    3 ar
     2    1    5 ar
     3    2    4 ar
     4    2    5 ar
     5    3    6 ar
     6    4    6 ar
     7    5    7 1
     8    6   13 1
     9    7   12 2
    10    7   14 1
    11    8    9 1
    12    9   10 1
    13   10   11 1
    14   11   14 1
    15    1   15 1
    16    2   16 1
    17    3   17 1
    18    4   18 1
    19    8   19 1
    20    8   20 1
    21    8   21 1
    22    9   22 1
    23    9   23 1
    24   10   24 1
    25   10   25 1
    26   11   26 1
    27   11   27 1
    28   13   28 1
