@<TRIPOS>MOLECULE
isobutyl formate
   17    16     0     0     0
SMALL
USER_CHARGES

@<TRIPOS>ATOM
      1 C1          2.8988    2.5317    2.0856 C.2       1 MOL         0.6322
      2 C2          0.9983   -0.3578   -0.2742 C.3       1 MOL        -0.0906
      3 C3          1.1578    1.1798   -2.2511 C.3       1 MOL        -0.0906
      4 C4          1.9991    1.9493   -0.0132 C.3       1 MOL         0.1277
      5 C5          1.8182    0.7470   -0.9439 C.3       1 MOL        -0.0803
      6 O1          2.5838    3.7082    1.9978 O.2       1 MOL        -0.5417
      7 O2          2.6754    1.5475    1.1709 O.3       1 MOL        -0.4471
      8 H1          3.4243    2.0994    2.9511 H         1 MOL         0.0790
      9 H2         -0.0051    0.0026   -0.0230 H         1 MOL         0.0382
     10 H3          1.4754   -0.7007    0.6503 H         1 MOL         0.0382
     11 H4          0.8826   -1.2218   -0.9368 H         1 MOL         0.0382
     12 H5          0.1652    1.6031   -2.0643 H         1 MOL         0.0382
     13 H6          1.0346    0.3259   -2.9257 H         1 MOL         0.0382
     14 H7          1.7569    1.9371   -2.7683 H         1 MOL         0.0382
     15 H8          2.6000    2.7249   -0.4995 H         1 MOL         0.0646
     16 H9          1.0323    2.3812    0.2672 H         1 MOL         0.0646
     17 H10         2.8075    0.3294   -1.1709 H         1 MOL         0.0530
@<TRIPOS>BOND
     1    1    6 2
     2    1    7 1
     3    2    5 1
     4    3    5 1
     5    4    5 1
     6    4    7 1
     7    1    8 1
     8    2    9 1
     9    2   10 1
    10    2   11 1
    11    3   12 1
    12    3   13 1
    13    3   14 1
    14    4   15 1
    15    4   16 1
    16    5   17 1
