@<TRIPOS>MOLECULE
2-isopropylsulfanylpropane
   21    20     0     0     0
SMALL
USER_CHARGES

@<TRIPOS>ATOM
      1 C1          0.8900    0.3284    2.7307 C.3       1 MOL        -0.0860
      2 C2          0.9729    0.1338    0.2216 C.3       1 MOL        -0.0860
      3 C3          2.7866    3.9748    1.6014 C.3       1 MOL        -0.0860
      4 C4          0.7756    4.7972    2.8741 C.3       1 MOL        -0.0860
      5 C5          1.2990    1.0057    1.4282 C.3       1 MOL         0.0209
      6 C6          1.5251    3.5751    2.3572 C.3       1 MOL         0.0209
      7 S1          0.4464    2.6115    1.2755 S.3       1 MOL        -0.3387
      8 H1         -0.1860    0.1214    2.7306 H         1 MOL         0.0431
      9 H2          1.4059   -0.6295    2.8611 H         1 MOL         0.0431
     10 H3          1.1041    0.9564    3.6030 H         1 MOL         0.0431
     11 H4         -0.1018   -0.0762    0.1829 H         1 MOL         0.0431
     12 H5          1.4915   -0.8300    0.2742 H         1 MOL         0.0431
     13 H6          1.2470    0.6212   -0.7210 H         1 MOL         0.0431
     14 H7          2.5330    4.6147    0.7489 H         1 MOL         0.0431
     15 H8          3.4722    4.5415    2.2414 H         1 MOL         0.0431
     16 H9          3.3225    3.1026    1.2101 H         1 MOL         0.0431
     17 H10         0.4910    5.4498    2.0411 H         1 MOL         0.0431
     18 H11         1.3987    5.3892    3.5536 H         1 MOL         0.0431
     19 H12        -0.1431    4.5197    3.4034 H         1 MOL         0.0431
     20 H13         2.3760    1.2036    1.4485 H         1 MOL         0.0619
     21 H14         1.8000    2.9371    3.2038 H         1 MOL         0.0619
@<TRIPOS>BOND
     1    1    5 1
     2    2    5 1
     3    3    6 1
     4    4    6 1
     5    5    7 1
     6    6    7 1
     7    1    8 1
     8    1    9 1
     9    1   10 1
    10    2   11 1
    11    2   12 1
    12    2   13 1
    13    3   14 1
    14    3   15 1
    15    3   16 1
    16    4   17 1
    17    4   18 1
    18    4   19 1
    19    5   20 1
    20    6   21 1
