@<TRIPOS>MOLECULE
methylcyclopentane
   18    18     0     0     0
SMALL
USER_CHARGES

@<TRIPOS>ATOM
      1 C1         -0.3396    0.4881   -0.9209 C.3       1 MOL        -0.0806
      2 C2         -1.6799   -0.1059   -1.3575 C.3       1 MOL        -0.0806
      3 C3          0.6372    0.2135   -2.0602 C.3       1 MOL        -0.0772
      4 C4         -1.4494   -0.6928   -2.7462 C.3       1 MOL        -0.0772
      5 C5          0.0448   -0.9981   -2.7731 C.3       1 MOL        -0.0726
      6 C6          0.5910   -1.1933   -4.1767 C.3       1 MOL        -0.0839
      7 H1         -0.4177    1.5603   -0.7140 H         1 MOL         0.0395
      8 H2          0.0001    0.0002    0.0001 H         1 MOL         0.0395
      9 H3         -1.9816   -0.8924   -0.6562 H         1 MOL         0.0395
     10 H4         -2.4752    0.6460   -1.3688 H         1 MOL         0.0395
     11 H5          0.6759    1.0810   -2.7306 H         1 MOL         0.0418
     12 H6          1.6518    0.0271   -1.6944 H         1 MOL         0.0418
     13 H7         -2.0608   -1.5833   -2.9215 H         1 MOL         0.0418
     14 H8         -1.7106    0.0501   -3.5100 H         1 MOL         0.0418
     15 H9          0.2424   -1.9013   -2.1809 H         1 MOL         0.0445
     16 H10         0.4038   -0.3041   -4.7819 H         1 MOL         0.0340
     17 H11         0.1092   -2.0489   -4.6538 H         1 MOL         0.0340
     18 H12         1.6674   -1.3724   -4.1416 H         1 MOL         0.0340
@<TRIPOS>BOND
     1    1    2 1
     2    1    3 1
     3    2    4 1
     4    3    5 1
     5    4    5 1
     6    5    6 1
     7    1    7 1
     8    1    8 1
     9    2    9 1
    10    2   10 1
    11    3   11 1
    12    3   12 1
    13    4   13 1
    14    4   14 1
    15    5   15 1
    16    6   16 1
    17    6   17 1
    18    6   18 1
