@<TRIPOS>MOLECULE
3-methylbut-1-ene
   15    14     0     0     0
SMALL
USER_CHARGES

@<TRIPOS>ATOM
      1 C1          0.9502   -0.5096    0.1168 C.2       1 MOL        -0.2238
      2 C2          1.0894   -1.4836    1.0237 C.2       1 MOL        -0.1580
      3 C3          0.3870   -1.7197    3.4007 C.3       1 MOL        -0.0867
      4 C4         -0.3339   -3.4146    1.6914 C.3       1 MOL        -0.0867
      5 C5         -0.0137   -1.9412    1.9424 C.3       1 MOL        -0.0423
      6 H1          1.7708   -0.2103   -0.5257 H         1 MOL         0.1105
      7 H2          0.0025    0.0058    0.0059 H         1 MOL         0.1105
      8 H3          2.0543   -1.9783    1.1080 H         1 MOL         0.1188
      9 H4          1.2950   -2.2827    3.6419 H         1 MOL         0.0349
     10 H5         -0.4041   -2.0559    4.0804 H         1 MOL         0.0349
     11 H6          0.5826   -0.6614    3.6089 H         1 MOL         0.0349
     12 H7          0.5393   -4.0530    1.8675 H         1 MOL         0.0349
     13 H8         -1.1369   -3.7539    2.3545 H         1 MOL         0.0349
     14 H9         -0.6648   -3.5739    0.6590 H         1 MOL         0.0349
     15 H10        -0.9243   -1.3595    1.7496 H         1 MOL         0.0483
@<TRIPOS>BOND
     1    1    2 2
     2    2    5 1
     3    3    5 1
     4    4    5 1
     5    1    6 1
     6    1    7 1
     7    2    8 1
     8    3    9 1
     9    3   10 1
    10    3   11 1
    11    4   12 1
    12    4   13 1
    13    4   14 1
    14    5   15 1
