@<TRIPOS>MOLECULE
2,3-dimethylnaphthalene
   24    25     0     0     0
SMALL
USER_CHARGES

@<TRIPOS>ATOM
      1 C1         -0.4966   -2.0341    0.4940 C.ar      1 MOL        -0.1292
      2 C2          0.3500   -1.0275    0.0392 C.ar      1 MOL        -0.1291
      3 C3         -0.0479   -3.3542    0.5448 C.ar      1 MOL        -0.1173
      4 C4          1.6484   -1.3369   -0.3665 C.ar      1 MOL        -0.1173
      5 C5          1.7243   -5.0072    0.1848 C.ar      1 MOL        -0.1204
      6 C6          3.4207   -2.9899   -0.7267 C.ar      1 MOL        -0.1204
      7 C7          1.2560   -3.6839    0.1403 C.ar      1 MOL        -0.0357
      8 C8          2.1168   -2.6602   -0.3222 C.ar      1 MOL        -0.0357
      9 C9          3.0228   -5.3167   -0.2210 C.ar      1 MOL        -0.0706
     10 C10         3.8693   -4.3100   -0.6758 C.ar      1 MOL        -0.0706
     11 C11         3.4820   -6.7366   -0.1581 C.3       1 MOL        -0.0551
     12 C12         5.2631   -4.6185   -1.1152 C.3       1 MOL        -0.0551
     13 H1         -1.5071   -1.7924    0.8103 H         1 MOL         0.1308
     14 H2          0.0002    0.0001    0.0005 H         1 MOL         0.1308
     15 H3         -0.7268   -4.1248    0.9042 H         1 MOL         0.1312
     16 H4          2.2927   -0.5337   -0.7181 H         1 MOL         0.1312
     17 H5          1.0717   -5.8036    0.5388 H         1 MOL         0.1316
     18 H6          4.0922   -2.2113   -1.0849 H         1 MOL         0.1316
     19 H7          3.2627   -7.2488   -1.1020 H         1 MOL         0.0448
     20 H8          4.5611   -6.7961    0.0296 H         1 MOL         0.0448
     21 H9          2.9858   -7.2777    0.6571 H         1 MOL         0.0448
     22 H10         5.9535   -4.5458   -0.2670 H         1 MOL         0.0448
     23 H11         5.3314   -5.6292   -1.5361 H         1 MOL         0.0448
     24 H12         5.5949   -3.9240   -1.8969 H         1 MOL         0.0448
@<TRIPOS>BOND
     1    1    2 ar
     2    1    3 ar
     3    2    4 ar
     4    3    7 ar
     5    4    8 ar
     6    5    7 ar
     7    5    9 ar
     8    6    8 ar
     9    6   10 ar
    10    7    8 ar
    11    9   10 ar
    12    9   11 1
    13   10   12 1
    14    1   13 1
    15    2   14 1
    16    3   15 1
    17    4   16 1
    18    5   17 1
    19    6   18 1
    20   11   19 1
    21   11   20 1
    22   11   21 1
    23   12   22 1
    24   12   23 1
    25   12   24 1
