@<TRIPOS>MOLECULE
oct-1-ene
   24    23     0     0     0
SMALL
USER_CHARGES

@<TRIPOS>ATOM
      1 C1         -0.8494   -0.0984   -4.2749 C.2       1 MOL        -0.2248
      2 C2         -1.7449   -0.8079   -3.5795 C.2       1 MOL        -0.1613
      3 C3         -6.7594    1.3909    1.6543 C.3       1 MOL        -0.0922
      4 C4         -3.1602   -0.3689   -3.3404 C.3       1 MOL        -0.0533
      5 C5         -6.5092    1.1216    0.1790 C.3       1 MOL        -0.0803
      6 C6         -3.4430   -0.2067   -1.8448 C.3       1 MOL        -0.0714
      7 C7         -5.1141    0.5409   -0.0558 C.3       1 MOL        -0.0771
      8 C8         -4.8546    0.3081   -1.5458 C.3       1 MOL        -0.0834
      9 H1          0.1643   -0.4535   -4.4238 H         1 MOL         0.1109
     10 H2         -1.1232    0.8572   -4.7085 H         1 MOL         0.1109
     11 H3         -1.4429   -1.7669   -3.1666 H         1 MOL         0.1183
     12 H4         -6.0150    2.0844    2.0583 H         1 MOL         0.0324
     13 H5         -7.7529    1.8230    1.8112 H         1 MOL         0.0324
     14 H6         -6.7002    0.4590    2.2252 H         1 MOL         0.0324
     15 H7         -3.8248   -1.1244   -3.7736 H         1 MOL         0.0443
     16 H8         -3.3662    0.5750   -3.8593 H         1 MOL         0.0443
     17 H9         -7.2696    0.4257   -0.1937 H         1 MOL         0.0381
     18 H10        -6.6226    2.0572   -0.3809 H         1 MOL         0.0381
     19 H11        -3.2853   -1.1618   -1.3276 H         1 MOL         0.0397
     20 H12        -2.7239    0.5034   -1.4160 H         1 MOL         0.0397
     21 H13        -5.0227   -0.4027    0.4936 H         1 MOL         0.0385
     22 H14        -4.3588    1.2265    0.3466 H         1 MOL         0.0385
     23 H15        -5.5950   -0.3954   -1.9457 H         1 MOL         0.0428
     24 H16        -4.9941    1.2531   -2.0854 H         1 MOL         0.0428
@<TRIPOS>BOND
     1    1    2 2
     2    2    4 1
     3    3    5 1
     4    4    6 1
     5    5    7 1
     6    6    8 1
     7    7    8 1
     8    1    9 1
     9    1   10 1
    10    2   11 1
    11    3   12 1
    12    3   13 1
    13    3   14 1
    14    4   15 1
    15    4   16 1
    16    5   17 1
    17    5   18 1
    18    6   19 1
    19    6   20 1
    20    7   21 1
    21    7   22 1
    22    8   23 1
    23    8   24 1
