@<TRIPOS>MOLECULE
propyl acetate
   17    16     0     0     0
SMALL
USER_CHARGES

@<TRIPOS>ATOM
      1 C1          2.6357   -1.8329    4.7977 C.2       1 MOL         0.6457
      2 C2          3.9233   -1.4542    5.4646 C.3       1 MOL        -0.1648
      3 C3         -0.0095   -0.6551    0.8768 C.3       1 MOL        -0.0934
      4 C4          1.2444   -0.4434    1.7060 C.3       1 MOL        -0.1028
      5 C5          1.2749   -1.3494    2.9273 C.3       1 MOL         0.1525
      6 O1          1.8678   -2.6847    5.2241 O.2       1 MOL        -0.4961
      7 O2          2.4629   -1.0899    3.6622 O.3       1 MOL        -0.4839
      8 H1          4.7356   -2.0785    5.0843 H         1 MOL         0.0751
      9 H2          3.8266   -1.5649    6.5476 H         1 MOL         0.0751
     10 H3          4.1535   -0.4084    5.2413 H         1 MOL         0.0751
     11 H4         -0.0920   -1.6965    0.5497 H         1 MOL         0.0371
     12 H5         -0.8996   -0.4128    1.4659 H         1 MOL         0.0371
     13 H6         -0.0053   -0.0150   -0.0111 H         1 MOL         0.0371
     14 H7          1.3083    0.6043    2.0234 H         1 MOL         0.0495
     15 H8          2.1333   -0.6260    1.0902 H         1 MOL         0.0495
     16 H9          0.4147   -1.1588    3.5770 H         1 MOL         0.0536
     17 H10         1.2712   -2.4035    2.6320 H         1 MOL         0.0536
@<TRIPOS>BOND
     1    1    2 1
     2    1    6 2
     3    1    7 1
     4    3    4 1
     5    4    5 1
     6    5    7 1
     7    2    8 1
     8    2    9 1
     9    2   10 1
    10    3   11 1
    11    3   12 1
    12    3   13 1
    13    4   14 1
    14    4   15 1
    15    5   16 1
    16    5   17 1
