@<TRIPOS>MOLECULE
(2S)-2-(3-benzoylphenyl)propanoic acid
   33    34     0     0     0
SMALL
USER_CHARGES

@<TRIPOS>ATOM
      1 C1          3.4800   -4.9782    4.1158 C.ar      1 MOL        -0.0988
      2 C2          4.0729   -3.9487    3.3850 C.ar      1 MOL        -0.1470
      3 C3          2.3201   -4.7334    4.8509 C.ar      1 MOL        -0.1470
      4 C4         -1.8934   -0.6220    5.0122 C.ar      1 MOL        -0.1269
      5 C5          3.5060   -2.6742    3.3894 C.ar      1 MOL        -0.0781
      6 C6          1.7532   -3.4590    4.8553 C.ar      1 MOL        -0.0781
      7 C7         -0.7353   -0.9233    4.2956 C.ar      1 MOL        -0.0945
      8 C8         -1.8015   -0.1757    6.3306 C.ar      1 MOL        -0.1053
      9 C9          0.6066   -0.3321    6.2157 C.ar      1 MOL        -0.0879
     10 C10         2.3461   -2.4293    4.1245 C.ar      1 MOL        -0.1764
     11 C11         0.5147   -0.7783    4.8973 C.ar      1 MOL        -0.1499
     12 C12        -0.5515   -0.0308    6.9323 C.ar      1 MOL        -0.0824
     13 C13         1.7551   -1.1006    4.1291 C.2       1 MOL         0.5873
     14 C14         0.1687   -0.5986    9.2751 C.2       1 MOL         0.6337
     15 C15         0.3138    1.7756    8.4947 C.3       1 MOL        -0.0959
     16 C16        -0.4532    0.4464    8.3421 C.3       1 MOL        -0.0535
     17 O1          2.2781   -0.1816    3.4813 O.2       1 MOL        -0.5162
     18 O2          0.5681   -1.6977    8.9132 O.2       1 MOL        -0.5302
     19 O3          0.2290   -0.1889   10.5699 O.3       1 MOL        -0.6173
     20 H1          3.9215   -5.9705    4.1124 H         1 MOL         0.1349
     21 H2          4.9761   -4.1394    2.8128 H         1 MOL         0.1377
     22 H3          1.8583   -5.5351    5.4197 H         1 MOL         0.1377
     23 H4         -2.8668   -0.7360    4.5441 H         1 MOL         0.1394
     24 H5          3.9762   -1.8792    2.8163 H         1 MOL         0.1488
     25 H6          0.8494   -3.2796    5.4319 H         1 MOL         0.1488
     26 H7         -0.8185   -1.2699    3.2686 H         1 MOL         0.1425
     27 H8         -2.7092    0.0573    6.8812 H         1 MOL         0.1366
     28 H9          1.5805   -0.2195    6.6868 H         1 MOL         0.1435
     29 H10         1.3449    1.6905    8.1345 H         1 MOL         0.0531
     30 H11        -0.1815    2.5726    7.9294 H         1 MOL         0.0531
     31 H12         0.3706    2.0953    9.5412 H         1 MOL         0.0531
     32 H13        -1.4751    0.6281    8.7285 H         1 MOL         0.0905
     33 H14         0.6157   -0.8357   11.1977 H         1 MOL         0.4445
@<TRIPOS>BOND
     1    1    2 ar
     2    1    3 ar
     3    2    5 ar
     4    3    6 ar
     5    4    7 ar
     6    4    8 ar
     7    5   10 ar
     8    6   10 ar
     9    7   11 ar
    10    8   12 ar
    11    9   11 ar
    12    9   12 ar
    13   10   13 1
    14   11   13 1
    15   12   16 1
    16   13   17 2
    17   14   16 1
    18   14   18 2
    19   14   19 1
    20   15   16 1
    21    1   20 1
    22    2   21 1
    23    3   22 1
    24    4   23 1
    25    5   24 1
    26    6   25 1
    27    7   26 1
    28    8   27 1
    29    9   28 1
    30   15   29 1
    31   15   30 1
    32   15   31 1
    33   16   32 1
    34   19   33 1
