@<TRIPOS>MOLECULE
2,6-dimethylnaphthalene
   24    25     0     0     0
SMALL
USER_CHARGES

@<TRIPOS>ATOM
      1 C1         -0.0479   -3.3542    0.5448 C.ar      1 MOL        -0.1169
      2 C2          3.4207   -2.9899   -0.7267 C.ar      1 MOL        -0.1168
      3 C3         -0.4966   -2.0341    0.4940 C.ar      1 MOL        -0.1246
      4 C4          3.8693   -4.3100   -0.6758 C.ar      1 MOL        -0.1246
      5 C5          1.7243   -5.0072    0.1848 C.ar      1 MOL        -0.1204
      6 C6          1.6484   -1.3369   -0.3665 C.ar      1 MOL        -0.1204
      7 C7          1.2560   -3.6839    0.1403 C.ar      1 MOL        -0.0353
      8 C8          2.1168   -2.6602   -0.3222 C.ar      1 MOL        -0.0353
      9 C9          0.3500   -1.0275    0.0392 C.ar      1 MOL        -0.0761
     10 C10         3.0228   -5.3167   -0.2210 C.ar      1 MOL        -0.0761
     11 C11        -0.1315    0.3832   -0.0149 C.3       1 MOL        -0.0538
     12 C12         3.5039   -6.7276   -0.1674 C.3       1 MOL        -0.0538
     13 H1         -0.7269   -4.1249    0.9035 H         1 MOL         0.1318
     14 H2          4.0993   -2.2194   -1.0864 H         1 MOL         0.1318
     15 H3         -1.5095   -1.8014    0.8122 H         1 MOL         0.1309
     16 H4          4.8826   -4.5426   -0.9927 H         1 MOL         0.1309
     17 H5          1.0723   -5.8038    0.5395 H         1 MOL         0.1318
     18 H6          2.3010   -0.5401   -0.7193 H         1 MOL         0.1318
     19 H7          0.0810    0.8957    0.9313 H         1 MOL         0.0442
     20 H8          0.3534    0.9386   -0.8281 H         1 MOL         0.0442
     21 H9         -1.2126    0.4282   -0.2001 H         1 MOL         0.0442
     22 H10         3.9631   -6.9375    0.8063 H         1 MOL         0.0442
     23 H11         2.6797   -7.4356   -0.3235 H         1 MOL         0.0442
     24 H12         4.2456   -6.9254   -0.9521 H         1 MOL         0.0442
@<TRIPOS>BOND
     1    1    3 ar
     2    1    7 ar
     3    2    4 ar
     4    2    8 ar
     5    3    9 ar
     6    4   10 ar
     7    5    7 ar
     8    5   10 ar
     9    6    8 ar
    10    6    9 ar
    11    7    8 ar
    12    9   11 1
    13   10   12 1
    14    1   13 1
    15    2   14 1
    16    3   15 1
    17    4   16 1
    18    5   17 1
    19    6   18 1
    20   11   19 1
    21   11   20 1
    22   11   21 1
    23   12   22 1
    24   12   23 1
    25   12   24 1
