@<TRIPOS>MOLECULE
cyclohepta-1,3,5-triene
   15    15     0     0     0
SMALL
USER_CHARGES

@<TRIPOS>ATOM
      1 C1          0.1968   -1.5424   -0.3979 C.2       1 MOL        -0.1203
      2 C2         -1.0780   -1.1503   -0.3015 C.2       1 MOL        -0.1203
      3 C3          1.3866   -0.8058   -0.0661 C.2       1 MOL        -0.1348
      4 C4         -1.5934    0.1110    0.1591 C.2       1 MOL        -0.1348
      5 C5          1.5232    0.5100    0.1360 C.2       1 MOL        -0.1413
      6 C6         -0.9416    1.2684    0.3222 C.2       1 MOL        -0.1413
      7 C7          0.5063    1.6092    0.1483 C.3       1 MOL        -0.0114
      8 H1          0.3839   -2.5519   -0.7607 H         1 MOL         0.1193
      9 H2         -1.8454   -1.8660   -0.5924 H         1 MOL         0.1193
     10 H3          2.2892   -1.4140   -0.0279 H         1 MOL         0.1191
     11 H4         -2.6660    0.1105    0.3468 H         1 MOL         0.1191
     12 H5          2.5404    0.8570    0.3215 H         1 MOL         0.1147
     13 H6         -1.5537    2.1169    0.6303 H         1 MOL         0.1147
     14 H7          0.7720    2.2668    0.9870 H         1 MOL         0.0489
     15 H8          0.6229    2.2111   -0.7605 H         1 MOL         0.0489
@<TRIPOS>BOND
     1    1    2 2
     2    1    3 1
     3    2    4 1
     4    3    5 2
     5    4    6 2
     6    5    7 1
     7    6    7 1
     8    1    8 1
     9    2    9 1
    10    3   10 1
    11    4   11 1
    12    5   12 1
    13    6   13 1
    14    7   14 1
    15    7   15 1
