@<TRIPOS>MOLECULE
ethyl acetate
   14    13     0     0     0
SMALL
USER_CHARGES

@<TRIPOS>ATOM
      1 C1         -2.4436   -0.2296   -0.7731 C.2       1 MOL         0.6328
      2 C2         -1.6440   -0.2458    0.4943 C.3       1 MOL        -0.1504
      3 C3         -1.8914    1.8641   -3.7227 C.3       1 MOL        -0.1235
      4 C4         -2.5898    0.8104   -2.8899 C.3       1 MOL         0.1355
      5 O1         -3.4150   -0.9444   -0.9795 O.2       1 MOL        -0.5431
      6 O2         -1.9187    0.6904   -1.6316 O.3       1 MOL        -0.4475
      7 H1         -0.8309   -0.9710    0.4106 H         1 MOL         0.0754
      8 H2         -2.2928   -0.4899    1.3392 H         1 MOL         0.0754
      9 H3         -1.2116    0.7448    0.6630 H         1 MOL         0.0754
     10 H4         -1.9137    2.8357   -3.2213 H         1 MOL         0.0474
     11 H5         -0.8487    1.5839   -3.9045 H         1 MOL         0.0474
     12 H6         -2.3704    1.9613   -4.7027 H         1 MOL         0.0474
     13 H7         -2.5639   -0.1588   -3.3969 H         1 MOL         0.0639
     14 H8         -3.6313    1.0923   -2.7085 H         1 MOL         0.0639
@<TRIPOS>BOND
     1    1    2 1
     2    1    5 2
     3    1    6 1
     4    3    4 1
     5    4    6 1
     6    2    7 1
     7    2    8 1
     8    2    9 1
     9    3   10 1
    10    3   11 1
    11    3   12 1
    12    4   13 1
    13    4   14 1
