@<TRIPOS>MOLECULE
octan-2-one
   25    24     0     0     0
SMALL
USER_CHARGES

@<TRIPOS>ATOM
      1 C1         -0.0533    0.1305   -3.3788 C.2       1 MOL         0.5612
      2 C2          1.3369   -0.0328   -3.9349 C.3       1 MOL        -0.2030
      3 C3         -5.2555    4.0627    0.4848 C.3       1 MOL        -0.0931
      4 C4         -0.3397    1.3740   -2.5612 C.3       1 MOL        -0.1786
      5 C5         -3.8142    4.0259    0.0022 C.3       1 MOL        -0.0792
      6 C6         -1.7622    1.4114   -2.0114 C.3       1 MOL        -0.0763
      7 C7         -3.5023    2.7214   -0.7309 C.3       1 MOL        -0.0790
      8 C8         -2.0608    2.7023   -1.2439 C.3       1 MOL        -0.0781
      9 O1         -0.9289   -0.7080   -3.5935 O.2       1 MOL        -0.5353
     10 H1          1.9583   -0.5703   -3.2129 H         1 MOL         0.0630
     11 H2          1.2997   -0.6019   -4.8661 H         1 MOL         0.0630
     12 H3          1.7834    0.9493   -4.1090 H         1 MOL         0.0630
     13 H4         -5.4668    3.2220    1.1532 H         1 MOL         0.0328
     14 H5         -5.9528    4.0158   -0.3576 H         1 MOL         0.0328
     15 H6         -5.4480    4.9897    1.0339 H         1 MOL         0.0328
     16 H7         -0.1602    2.2444   -3.2027 H         1 MOL         0.0643
     17 H8          0.3889    1.4292   -1.7441 H         1 MOL         0.0643
     18 H9         -3.6360    4.8787   -0.6630 H         1 MOL         0.0381
     19 H10        -3.1441    4.1395    0.8621 H         1 MOL         0.0381
     20 H11        -1.9417    0.5473   -1.3614 H         1 MOL         0.0550
     21 H12        -2.4606    1.3249   -2.8528 H         1 MOL         0.0550
     22 H13        -3.6628    1.8726   -0.0550 H         1 MOL         0.0424
     23 H14        -4.1941    2.5992   -1.5734 H         1 MOL         0.0424
     24 H15        -1.3735    2.8005   -0.3954 H         1 MOL         0.0371
     25 H16        -1.8928    3.5660   -1.8987 H         1 MOL         0.0371
@<TRIPOS>BOND
     1    1    2 1
     2    1    4 1
     3    1    9 2
     4    3    5 1
     5    4    6 1
     6    5    7 1
     7    6    8 1
     8    7    8 1
     9    2   10 1
    10    2   11 1
    11    2   12 1
    12    3   13 1
    13    3   14 1
    14    3   15 1
    15    4   16 1
    16    4   17 1
    17    5   18 1
    18    5   19 1
    19    6   20 1
    20    6   21 1
    21    7   22 1
    22    7   23 1
    23    8   24 1
    24    8   25 1
