@<TRIPOS>MOLECULE
propanenitrile
    9     8     0     0     0
SMALL
USER_CHARGES

@<TRIPOS>ATOM
      1 C1          2.0234   -1.2467    2.3255 C.1       1 MOL         0.2094
      2 C2          0.6419   -0.7484    0.4847 C.3       1 MOL        -0.0942
      3 C3          1.1888   -0.1853    1.7565 C.3       1 MOL        -0.0233
      4 N1          2.6856   -2.0831    2.7823 N.1       1 MOL        -0.3763
      5 H1          1.4417   -1.0234   -0.2129 H         1 MOL         0.0466
      6 H2          0.0767   -1.6647    0.7040 H         1 MOL         0.0466
      7 H3         -0.0511   -0.0515   -0.0012 H         1 MOL         0.0466
      8 H4          0.3742    0.0817    2.4366 H         1 MOL         0.0723
      9 H5          1.7795    0.7130    1.5529 H         1 MOL         0.0723
@<TRIPOS>BOND
     1    1    3 1
     2    1    4 3
     3    2    3 1
     4    2    5 1
     5    2    6 1
     6    2    7 1
     7    3    8 1
     8    3    9 1
