@<TRIPOS>MOLECULE
1-iodohexane
   20    19     0     0     0
SMALL
USER_CHARGES

@<TRIPOS>ATOM
      1 C1          0.1662    1.5991   -2.7665 C.3       1 MOL        -0.0921
      2 C2         -0.5265    1.1632   -1.4853 C.3       1 MOL        -0.0798
      3 C3          0.3544    0.2211   -0.6651 C.3       1 MOL        -0.0791
      4 C4         -0.3595   -0.2414    0.6074 C.3       1 MOL        -0.0791
      5 C5          0.5365   -1.1646    1.4407 C.3       1 MOL        -0.0775
      6 C6         -0.1682   -1.7427    2.6690 C.3       1 MOL         0.0691
      7 I1          1.0639   -3.1190    3.7452 I         1 MOL        -0.2539
      8 H1          0.4299    0.7344   -3.3838 H         1 MOL         0.0337
      9 H2          1.0867    2.1433   -2.5332 H         1 MOL         0.0337
     10 H3         -0.4785    2.2589   -3.3561 H         1 MOL         0.0337
     11 H4         -0.7764    2.0505   -0.8919 H         1 MOL         0.0383
     12 H5         -1.4700    0.6656   -1.7380 H         1 MOL         0.0383
     13 H6          1.2881    0.7307   -0.3977 H         1 MOL         0.0409
     14 H7          0.6245   -0.6510   -1.2730 H         1 MOL         0.0409
     15 H8         -1.2806   -0.7719    0.3368 H         1 MOL         0.0418
     16 H9         -0.6527    0.6365    1.1933 H         1 MOL         0.0418
     17 H10         1.4526   -0.6368    1.7323 H         1 MOL         0.0532
     18 H11         0.8479   -2.0040    0.8058 H         1 MOL         0.0532
     19 H12        -0.5037   -0.9379    3.3322 H         1 MOL         0.0715
     20 H13        -1.0660   -2.2782    2.3392 H         1 MOL         0.0715
@<TRIPOS>BOND
     1    1    2 1
     2    2    3 1
     3    3    4 1
     4    4    5 1
     5    5    6 1
     6    6    7 1
     7    1    8 1
     8    1    9 1
     9    1   10 1
    10    2   11 1
    11    2   12 1
    12    3   13 1
    13    3   14 1
    14    4   15 1
    15    4   16 1
    16    5   17 1
    17    5   18 1
    18    6   19 1
    19    6   20 1
