@<TRIPOS>MOLECULE
1,2,3-trichlorobenzene
   12    12     0     0     0
SMALL
USER_CHARGES

@<TRIPOS>ATOM
      1 C1          1.8851   -1.0363   -0.1124 C.ar      1 MOL        -0.1135
      2 C2          0.8066   -0.4630    0.5610 C.ar      1 MOL        -0.1184
      3 C3          2.9210   -1.6309    0.6081 C.ar      1 MOL        -0.1184
      4 C4          0.7638   -0.4841    1.9551 C.ar      1 MOL         0.0236
      5 C5          2.8783   -1.6520    2.0022 C.ar      1 MOL         0.0236
      6 C6          1.7997   -1.0786    2.6757 C.ar      1 MOL         0.0172
      7 Cl1        -0.6056    0.2467    2.7198 Cl        1 MOL        -0.0625
      8 Cl2         4.1990   -2.4069    2.8268 Cl        1 MOL        -0.0625
      9 Cl3         1.7464   -1.1050    4.4130 Cl        1 MOL        -0.0448
     10 H1          1.9184   -1.0198   -1.1979 H         1 MOL         0.1466
     11 H2          0.0084   -0.0042   -0.0173 H         1 MOL         0.1546
     12 H3          3.7535   -2.0727    0.0662 H         1 MOL         0.1546
@<TRIPOS>BOND
     1    1    2 ar
     2    1    3 ar
     3    2    4 ar
     4    3    5 ar
     5    4    6 ar
     6    4    7 1
     7    5    6 ar
     8    5    8 1
     9    6    9 1
    10    1   10 1
    11    2   11 1
    12    3   12 1
