@<TRIPOS>MOLECULE
dimethoxy-(4-nitrophenoxy)-thioxo-$l^{5}-phosphane
   26    26     0     0     0
SMALL
USER_CHARGES

@<TRIPOS>ATOM
      1 C1         -3.6981    0.6012   -5.8431 C.ar      1 MOL        -0.0503
      2 C2         -2.3330   -1.1890   -6.7199 C.ar      1 MOL        -0.0503
      3 C3         -2.8392    0.7211   -4.7506 C.ar      1 MOL        -0.1429
      4 C4         -1.4741   -1.0691   -5.6274 C.ar      1 MOL        -0.1429
      5 C5         -3.4450   -0.3539   -6.8277 C.ar      1 MOL        -0.1767
      6 C6         -1.7272   -0.1140   -4.6428 C.ar      1 MOL         0.1719
      7 C7         -0.0172    0.2734   -0.6970 C.3       1 MOL         0.1364
      8 C8          2.4083   -1.9909   -3.5636 C.3       1 MOL         0.1364
      9 N1         -4.3193   -0.4763   -7.9399 N.pl3     1 MOL         0.3158
     10 O1         -5.3140    0.2846   -8.0180 O.3       1 MOL        -0.2021
     11 O2         -4.0733   -1.3419   -8.8143 O.2       1 MOL        -0.2021
     12 O3         -0.8843    0.0037   -3.5707 O.3       1 MOL        -0.4623
     13 O4          0.7446   -0.3757   -1.7012 O.3       1 MOL        -0.5239
     14 O5          1.2035   -1.3610   -3.9647 O.3       1 MOL        -0.5239
     15 P1         -0.0108   -1.1840   -2.8963 P.3       1 MOL         1.2220
     16 S1         -0.9725   -2.7937   -2.3601 S.2       1 MOL        -0.5793
     17 H1         -4.5610    1.2587   -5.9152 H         1 MOL         0.1790
     18 H2         -2.1242   -1.9381   -7.4798 H         1 MOL         0.1790
     19 H3         -3.0413    1.4672   -3.9870 H         1 MOL         0.1653
     20 H4         -0.6097   -1.7228   -5.5487 H         1 MOL         0.1653
     21 H5          0.6550    0.7593    0.0144 H         1 MOL         0.0643
     22 H6         -0.6423   -0.4601   -0.1814 H         1 MOL         0.0643
     23 H7         -0.6545    1.0269   -1.1657 H         1 MOL         0.0643
     24 H8          3.1031   -2.0203   -4.4064 H         1 MOL         0.0643
     25 H9          2.1929   -3.0057   -3.2196 H         1 MOL         0.0643
     26 H10         2.8539   -1.4183   -2.7467 H         1 MOL         0.0643
@<TRIPOS>BOND
     1    1    3 ar
     2    1    5 ar
     3    2    4 ar
     4    2    5 ar
     5    3    6 ar
     6    4    6 ar
     7    5    9 1
     8    6   12 1
     9    7   13 1
    10    8   14 1
    11    9   10 1
    12    9   11 2
    13   12   15 1
    14   13   15 1
    15   14   15 1
    16   15   16 2
    17    1   17 1
    18    2   18 1
    19    3   19 1
    20    4   20 1
    21    7   21 1
    22    7   22 1
    23    7   23 1
    24    8   24 1
    25    8   25 1
    26    8   26 1
