@<TRIPOS>MOLECULE
N4-tert-butyl-N2-ethyl-6-methylsulfanyl-1,3,5-triazine-2,4-diamine
   35    35     0     0     0
SMALL
USER_CHARGES

@<TRIPOS>ATOM
      1 C1          2.4305   -3.6277    4.1549 C.ar      1 MOL         0.9137
      2 C2          0.9661   -1.9368    3.9734 C.ar      1 MOL         0.9108
      3 C3          1.0060   -3.1919    5.8335 C.ar      1 MOL         0.7963
      4 C4          5.1443   -5.1027    2.0177 C.3       1 MOL        -0.1191
      5 C5          0.0792    0.6840    1.4242 C.3       1 MOL        -0.1060
      6 C6          2.3761   -0.1447    1.9949 C.3       1 MOL        -0.1060
      7 C7          0.6983   -1.7000    0.9681 C.3       1 MOL        -0.1060
      8 C8          0.7145   -2.0003    8.2847 C.3       1 MOL        -0.0604
      9 C9          4.0344   -4.1535    2.3173 C.3       1 MOL         0.2106
     10 C10         0.8914   -0.5165    1.9233 C.3       1 MOL         0.2288
     11 N1          1.9609   -2.6267    3.3928 N.ar      1 MOL        -0.8391
     12 N2          2.0037   -3.9686    5.3816 N.ar      1 MOL        -0.7707
     13 N3          0.4380   -2.1609    5.1874 N.ar      1 MOL        -0.7969
     14 N4          3.4797   -4.4006    3.6112 N.pl3     1 MOL        -0.8451
     15 N5          0.4313   -0.8895    3.2486 N.pl3     1 MOL        -0.8108
     16 S1          0.3720   -3.5678    7.4547 S.3       1 MOL        -0.2525
     17 H1          5.9535   -5.0012    2.7490 H         1 MOL         0.0448
     18 H2          4.7842   -6.1372    2.0190 H         1 MOL         0.0448
     19 H3          5.5576   -4.8892    1.0247 H         1 MOL         0.0448
     20 H4         -0.9885    0.4427    1.3642 H         1 MOL         0.0463
     21 H5          0.1921    1.5466    2.0902 H         1 MOL         0.0463
     22 H6          0.3994    0.9879    0.4207 H         1 MOL         0.0463
     23 H7          2.9785   -0.9890    2.3499 H         1 MOL         0.0463
     24 H8          2.5424    0.6865    2.6900 H         1 MOL         0.0463
     25 H9          2.7603    0.1545    1.0134 H         1 MOL         0.0463
     26 H10         1.2693   -2.5742    1.3018 H         1 MOL         0.0463
     27 H11        -0.3559   -1.9908    0.9013 H         1 MOL         0.0463
     28 H12         1.0442   -1.4537   -0.0425 H         1 MOL         0.0463
     29 H13         0.3808   -2.0494    9.3241 H         1 MOL         0.0737
     30 H14         0.1856   -1.1891    7.7785 H         1 MOL         0.0737
     31 H15         1.7877   -1.7957    8.2631 H         1 MOL         0.0737
     32 H16         3.2300   -4.2602    1.5833 H         1 MOL         0.0609
     33 H17         4.3924   -3.1200    2.3000 H         1 MOL         0.0609
     34 H18         3.8311   -5.1489    4.1771 H         1 MOL         0.4375
     35 H19        -0.3190   -0.3484    3.6547 H         1 MOL         0.4211
@<TRIPOS>BOND
     1    1   11 ar
     2    1   12 ar
     3    1   14 1
     4    2   11 ar
     5    2   13 ar
     6    2   15 1
     7    3   12 ar
     8    3   13 ar
     9    3   16 1
    10    4    9 1
    11    5   10 1
    12    6   10 1
    13    7   10 1
    14    8   16 1
    15    9   14 1
    16   10   15 1
    17    4   17 1
    18    4   18 1
    19    4   19 1
    20    5   20 1
    21    5   21 1
    22    5   22 1
    23    6   23 1
    24    6   24 1
    25    6   25 1
    26    7   26 1
    27    7   27 1
    28    7   28 1
    29    8   29 1
    30    8   30 1
    31    8   31 1
    32    9   32 1
    33    9   33 1
    34   14   34 1
    35   15   35 1
