@<TRIPOS>MOLECULE
pentyl propanoate
   26    25     0     0     0
SMALL
USER_CHARGES

@<TRIPOS>ATOM
      1 C1          5.2415   -2.0415   -5.0274 C.2       1 MOL         0.6384
      2 C2          6.7592   -2.9230   -6.8261 C.3       1 MOL        -0.0930
      3 C3          0.8518   -0.3688    0.6905 C.3       1 MOL        -0.0940
      4 C4          5.9997   -3.2393   -5.5496 C.3       1 MOL        -0.1314
      5 C5          1.6513   -1.4310   -0.0471 C.3       1 MOL        -0.0788
      6 C6          2.2938   -0.8687   -1.3148 C.3       1 MOL        -0.0760
      7 C7          3.1237   -1.9294   -2.0346 C.3       1 MOL        -0.0856
      8 C8          3.8013   -1.3663   -3.2758 C.3       1 MOL         0.1353
      9 O1          5.2343   -0.9319   -5.5425 O.2       1 MOL        -0.5301
     10 O2          4.5660   -2.3952   -3.8884 O.3       1 MOL        -0.4546
     11 H1          6.0782   -2.5934   -7.6178 H         1 MOL         0.0471
     12 H2          7.4886   -2.1268   -6.6486 H         1 MOL         0.0471
     13 H3          7.2965   -3.8041   -7.1925 H         1 MOL         0.0471
     14 H4          1.4856    0.4815    0.9618 H         1 MOL         0.0333
     15 H5          0.0267    0.0005    0.0732 H         1 MOL         0.0333
     16 H6          0.4284   -0.7838    1.6105 H         1 MOL         0.0333
     17 H7          6.7063   -3.5653   -4.7789 H         1 MOL         0.0768
     18 H8          5.2839   -4.0449   -5.7443 H         1 MOL         0.0768
     19 H9          0.9892   -2.2661   -0.3036 H         1 MOL         0.0375
     20 H10         2.4270   -1.8247    0.6201 H         1 MOL         0.0375
     21 H11         1.5129   -0.4939   -1.9877 H         1 MOL         0.0455
     22 H12         2.9330   -0.0158   -1.0553 H         1 MOL         0.0455
     23 H13         2.4898   -2.7778   -2.3208 H         1 MOL         0.0522
     24 H14         3.8852   -2.3389   -1.3593 H         1 MOL         0.0522
     25 H15         4.4727   -0.5420   -3.0147 H         1 MOL         0.0524
     26 H16         3.0598   -1.0074   -3.9966 H         1 MOL         0.0524
@<TRIPOS>BOND
     1    1    4 1
     2    1    9 2
     3    1   10 1
     4    2    4 1
     5    3    5 1
     6    5    6 1
     7    6    7 1
     8    7    8 1
     9    8   10 1
    10    2   11 1
    11    2   12 1
    12    2   13 1
    13    3   14 1
    14    3   15 1
    15    3   16 1
    16    4   17 1
    17    4   18 1
    18    5   19 1
    19    5   20 1
    20    6   21 1
    21    6   22 1
    22    7   23 1
    23    7   24 1
    24    8   25 1
    25    8   26 1
