@<TRIPOS>MOLECULE
3,3-dimethylbutan-2-one
   19    18     0     0     0
SMALL
USER_CHARGES

@<TRIPOS>ATOM
      1 C1         -1.9541   -0.8993   -0.0332 C.2       1 MOL         0.5711
      2 C2         -0.6286   -0.3787   -0.5367 C.3       1 MOL        -0.1997
      3 C3         -1.8402    0.0713    2.2688 C.3       1 MOL        -0.0840
      4 C4         -1.1119   -2.3073    1.8941 C.3       1 MOL        -0.0840
      5 C5         -3.5277   -1.7025    1.7550 C.3       1 MOL        -0.0840
      6 C6         -2.0979   -1.2116    1.4689 C.3       1 MOL        -0.1497
      7 O1         -2.8917   -1.0445   -0.8212 O.2       1 MOL        -0.5339
      8 H1          0.0047   -1.2220   -0.8286 H         1 MOL         0.0638
      9 H2         -0.7746    0.2541   -1.4141 H         1 MOL         0.0638
     10 H3         -0.1220    0.1777    0.2549 H         1 MOL         0.0638
     11 H4         -1.9310   -0.0990    3.3470 H         1 MOL         0.0414
     12 H5         -0.8299    0.4546    2.0852 H         1 MOL         0.0414
     13 H6         -2.5538    0.8575    1.9981 H         1 MOL         0.0414
     14 H7         -1.2011   -2.5415    2.9605 H         1 MOL         0.0414
     15 H8         -0.0764   -1.9982    1.7112 H         1 MOL         0.0414
     16 H9         -1.2893   -3.2370    1.3416 H         1 MOL         0.0414
     17 H10        -3.6608   -1.9332    2.8184 H         1 MOL         0.0414
     18 H11        -3.7581   -2.6138    1.1909 H         1 MOL         0.0414
     19 H12        -4.2713   -0.9461    1.4797 H         1 MOL         0.0414
@<TRIPOS>BOND
     1    1    2 1
     2    1    6 1
     3    1    7 2
     4    3    6 1
     5    4    6 1
     6    5    6 1
     7    2    8 1
     8    2    9 1
     9    2   10 1
    10    3   11 1
    11    3   12 1
    12    3   13 1
    13    4   14 1
    14    4   15 1
    15    4   16 1
    16    5   17 1
    17    5   18 1
    18    5   19 1
