@<TRIPOS>MOLECULE
1,3-bis(trifluoromethyl)benzene
   18    18     0     0     0
SMALL
USER_CHARGES

@<TRIPOS>ATOM
      1 C1          1.8851   -1.0363   -0.1124 C.ar      1 MOL        -0.1388
      2 C2          0.8066   -0.4630    0.5610 C.ar      1 MOL        -0.0549
      3 C3          2.9210   -1.6309    0.6081 C.ar      1 MOL        -0.0549
      4 C4          1.7997   -1.0786    2.6757 C.ar      1 MOL        -0.0317
      5 C5          0.7638   -0.4841    1.9551 C.ar      1 MOL        -0.1739
      6 C6          2.8783   -1.6520    2.0022 C.ar      1 MOL        -0.1739
      7 C7         -0.3905    0.1278    2.6743 C.3       1 MOL         0.6895
      8 C8          3.9863   -2.2872    2.7726 C.3       1 MOL         0.6895
      9 F1         -1.3285    0.6704    1.8426 F         1 MOL        -0.2323
     10 F2         -1.0775   -0.7558    3.4572 F         1 MOL        -0.2323
     11 F3         -0.0126    1.1394    3.5090 F         1 MOL        -0.2323
     12 F4          4.9738   -2.8060    1.9843 F         1 MOL        -0.2323
     13 F5          4.6234   -1.4285    3.6225 F         1 MOL        -0.2323
     14 F6          3.5577   -3.3227    3.5516 F         1 MOL        -0.2323
     15 H1          1.9183   -1.0199   -1.1980 H         1 MOL         0.1529
     16 H2          0.0037   -0.0025   -0.0089 H         1 MOL         0.1615
     17 H3          3.7578   -2.0744    0.0751 H         1 MOL         0.1615
     18 H4          1.7665   -1.0963    3.7625 H         1 MOL         0.1670
@<TRIPOS>BOND
     1    1    2 ar
     2    1    3 ar
     3    2    5 ar
     4    3    6 ar
     5    4    5 ar
     6    4    6 ar
     7    5    7 1
     8    6    8 1
     9    7    9 1
    10    7   10 1
    11    7   11 1
    12    8   12 1
    13    8   13 1
    14    8   14 1
    15    1   15 1
    16    2   16 1
    17    3   17 1
    18    4   18 1
