@<TRIPOS>MOLECULE
trimethoxymethylbenzene
   27    27     0     0     0
SMALL
USER_CHARGES

@<TRIPOS>ATOM
      1 C1         -1.5425    4.1032   -3.2709 C.ar      1 MOL        -0.1152
      2 C2         -0.3926    4.5354   -2.6101 C.ar      1 MOL        -0.1412
      3 C3         -2.3833    3.1676   -2.6680 C.ar      1 MOL        -0.1412
      4 C4         -0.0834    4.0319   -1.3466 C.ar      1 MOL        -0.0937
      5 C5         -2.0741    2.6641   -1.4045 C.ar      1 MOL        -0.0937
      6 C6         -0.9242    3.0962   -0.7437 C.ar      1 MOL        -0.1184
      7 C7          0.7888    0.7965   -0.3489 C.3       1 MOL         0.1347
      8 C8         -1.3628    1.0750    2.3898 C.3       1 MOL         0.1347
      9 C9         -1.5794    4.4943    1.7045 C.3       1 MOL         0.1347
     10 C10        -0.5845    2.5417    0.6462 C.3       1 MOL         0.5784
     11 O1          0.7053    1.8843    0.5666 O.3       1 MOL        -0.4498
     12 O2         -1.6075    1.6330    1.1030 O.3       1 MOL        -0.4498
     13 O3         -0.4333    3.6623    1.5538 O.3       1 MOL        -0.4498
     14 H1         -1.7838    4.4963   -4.2542 H         1 MOL         0.1323
     15 H2          0.2616    5.2647   -3.0789 H         1 MOL         0.1339
     16 H3         -3.2792    2.8317   -3.1817 H         1 MOL         0.1339
     17 H4          0.8148    4.3742   -0.8393 H         1 MOL         0.1484
     18 H5         -2.7349    1.9353   -0.9426 H         1 MOL         0.1484
     19 H6          1.7980    0.3780   -0.3276 H         1 MOL         0.0415
     20 H7          0.5495    1.1474   -1.3559 H         1 MOL         0.0415
     21 H8          0.0715    0.0272   -0.0532 H         1 MOL         0.0415
     22 H9         -2.1811    0.4023    2.6577 H         1 MOL         0.0415
     23 H10        -1.2810    1.8781    3.1266 H         1 MOL         0.0415
     24 H11        -0.4264    0.5128    2.3612 H         1 MOL         0.0415
     25 H12        -1.3550    5.3013    2.4062 H         1 MOL         0.0415
     26 H13        -2.4175    3.8981    2.0742 H         1 MOL         0.0415
     27 H14        -1.8391    4.9211    0.7328 H         1 MOL         0.0415
@<TRIPOS>BOND
     1    1    2 ar
     2    1    3 ar
     3    2    4 ar
     4    3    5 ar
     5    4    6 ar
     6    5    6 ar
     7    6   10 1
     8    7   11 1
     9    8   12 1
    10    9   13 1
    11   10   11 1
    12   10   12 1
    13   10   13 1
    14    1   14 1
    15    2   15 1
    16    3   16 1
    17    4   17 1
    18    5   18 1
    19    7   19 1
    20    7   20 1
    21    7   21 1
    22    8   22 1
    23    8   23 1
    24    8   24 1
    25    9   25 1
    26    9   26 1
    27    9   27 1
