@<TRIPOS>MOLECULE
decane
   32    31     0     0     0
SMALL
USER_CHARGES

@<TRIPOS>ATOM
      1 C1          0.4524   -0.7406    0.2814 C.3       1 MOL        -0.0917
      2 C2         -7.0612   -8.7114   -3.0138 C.3       1 MOL        -0.0916
      3 C3         -0.2801   -2.0451    0.5523 C.3       1 MOL        -0.0799
      4 C4         -6.3263   -7.4083   -3.2894 C.3       1 MOL        -0.0799
      5 C5         -1.2774   -2.3688   -0.5599 C.3       1 MOL        -0.0787
      6 C6         -5.4696   -6.9881   -2.0943 C.3       1 MOL        -0.0787
      7 C7         -2.0367   -3.6649   -0.2669 C.3       1 MOL        -0.0778
      8 C8         -4.7181   -5.6718   -2.3184 C.3       1 MOL        -0.0778
      9 C9         -3.0068   -4.0067   -1.4000 C.3       1 MOL        -0.0779
     10 C10        -3.8035   -5.2915   -1.1510 C.3       1 MOL        -0.0779
     11 H1          0.9826   -0.7951   -0.6746 H         1 MOL         0.0327
     12 H2          1.1870   -0.5329    1.0660 H         1 MOL         0.0327
     13 H3         -0.2474    0.0998    0.2342 H         1 MOL         0.0327
     14 H4         -6.3469   -9.5069   -2.7790 H         1 MOL         0.0327
     15 H5         -7.7425   -8.6055   -2.1636 H         1 MOL         0.0327
     16 H6         -7.6445   -9.0246   -3.8855 H         1 MOL         0.0327
     17 H7         -0.8039   -1.9705    1.5125 H         1 MOL         0.0376
     18 H8          0.4518   -2.8561    0.6439 H         1 MOL         0.0376
     19 H9         -7.0641   -6.6327   -3.5207 H         1 MOL         0.0376
     20 H10        -5.6940   -7.5332   -4.1761 H         1 MOL         0.0376
     21 H11        -0.7448   -2.4621   -1.5142 H         1 MOL         0.0386
     22 H12        -1.9900   -1.5418   -0.6670 H         1 MOL         0.0386
     23 H13        -4.7305   -7.7727   -1.8894 H         1 MOL         0.0386
     24 H14        -6.0975   -6.9056   -1.1987 H         1 MOL         0.0386
     25 H15        -2.5842   -3.5536    0.6756 H         1 MOL         0.0389
     26 H16        -1.3224   -4.4864   -0.1340 H         1 MOL         0.0389
     27 H17        -5.4444   -4.8729   -2.5057 H         1 MOL         0.0389
     28 H18        -4.1147   -5.7736   -3.2288 H         1 MOL         0.0389
     29 H19        -2.4405   -4.1315   -2.3314 H         1 MOL         0.0389
     30 H20        -3.6981   -3.1704   -1.5611 H         1 MOL         0.0389
     31 H21        -4.3904   -5.1762   -0.2327 H         1 MOL         0.0389
     32 H22        -3.0908   -6.1062   -0.9732 H         1 MOL         0.0389
@<TRIPOS>BOND
     1    1    3 1
     2    2    4 1
     3    3    5 1
     4    4    6 1
     5    5    7 1
     6    6    8 1
     7    7    9 1
     8    8   10 1
     9    9   10 1
    10    1   11 1
    11    1   12 1
    12    1   13 1
    13    2   14 1
    14    2   15 1
    15    2   16 1
    16    3   17 1
    17    3   18 1
    18    4   19 1
    19    4   20 1
    20    5   21 1
    21    5   22 1
    22    6   23 1
    23    6   24 1
    24    7   25 1
    25    7   26 1
    26    8   27 1
    27    8   28 1
    28    9   29 1
    29    9   30 1
    30   10   31 1
    31   10   32 1
