@<TRIPOS>MOLECULE
pyridine-4-carbaldehyde
   13    13     0     0     0
SMALL
USER_CHARGES

@<TRIPOS>ATOM
      1 C1          0.2265   -0.4197    0.9733 C.ar      1 MOL        -0.1985
      2 C2          1.6520   -0.6227    2.8997 C.ar      1 MOL        -0.1985
      3 C3         -0.6317   -1.3224    1.5803 C.ar      1 MOL         0.3840
      4 C4          0.7299   -1.5161    3.4206 C.ar      1 MOL         0.3840
      5 C5          1.3879   -0.0684    1.6522 C.ar      1 MOL        -0.1588
      6 C6          2.3223    0.8750    1.0600 C.2       1 MOL         0.5728
      7 N1         -0.4092   -1.8816    2.7908 N.ar      1 MOL        -0.6432
      8 O1          3.3684    1.2255    1.6136 O.2       1 MOL        -0.5138
      9 H1         -0.0108   -0.0052   -0.0008 H         1 MOL         0.1553
     10 H2          2.5483   -0.3695    3.4560 H         1 MOL         0.1553
     11 H3         -1.5513   -1.6283    1.0929 H         1 MOL         0.0286
     12 H4          0.8894   -1.9765    4.3899 H         1 MOL         0.0286
     13 H5          2.0661    1.2905    0.0609 H         1 MOL         0.0043
@<TRIPOS>BOND
     1    1    3 ar
     2    1    5 ar
     3    2    4 ar
     4    2    5 ar
     5    3    7 ar
     6    4    7 ar
     7    5    6 1
     8    6    8 2
     9    1    9 1
    10    2   10 1
    11    3   11 1
    12    4   12 1
    13    6   13 1
