@<TRIPOS>MOLECULE
2-methoxyphenol
   17    17     0     0     0
SMALL
USER_CHARGES

@<TRIPOS>ATOM
      1 C1          1.8851   -1.0363   -0.1124 C.ar      1 MOL        -0.1246
      2 C2          0.8066   -0.4630    0.5610 C.ar      1 MOL        -0.1310
      3 C3          2.9210   -1.6309    0.6081 C.ar      1 MOL        -0.1875
      4 C4          0.7638   -0.4841    1.9551 C.ar      1 MOL        -0.1761
      5 C5          2.8783   -1.6520    2.0022 C.ar      1 MOL         0.1003
      6 C6          1.7997   -1.0786    2.6757 C.ar      1 MOL         0.1016
      7 C7          0.6102   -0.4844    4.6474 C.3       1 MOL         0.1103
      8 O1          3.8966   -2.2346    2.6945 O.3       1 MOL        -0.4765
      9 O2          1.7470   -1.0918    4.0368 O.3       1 MOL        -0.3036
     10 H1          1.9183   -1.0200   -1.1982 H         1 MOL         0.1364
     11 H2          0.0002   -0.0001    0.0001 H         1 MOL         0.1316
     12 H3          3.7584   -2.0759    0.0774 H         1 MOL         0.1339
     13 H4         -0.0785   -0.0342    2.4734 H         1 MOL         0.1400
     14 H5          0.6933   -0.5639    5.7341 H         1 MOL         0.0439
     15 H6         -0.2994   -0.9833    4.3034 H         1 MOL         0.0439
     16 H7          0.5749    0.5699    4.3631 H         1 MOL         0.0439
     17 H8          4.5633   -2.5819    2.0812 H         1 MOL         0.4136
@<TRIPOS>BOND
     1    1    2 ar
     2    1    3 ar
     3    2    4 ar
     4    3    5 ar
     5    4    6 ar
     6    5    6 ar
     7    5    8 1
     8    6    9 1
     9    7    9 1
    10    1   10 1
    11    2   11 1
    12    3   12 1
    13    4   13 1
    14    7   14 1
    15    7   15 1
    16    7   16 1
    17    8   17 1
