@<TRIPOS>MOLECULE
(2R)-2-bromo-1,1,1,2-tetrafluoro-ethane
    8     7     0     0     0
SMALL
USER_CHARGES

@<TRIPOS>ATOM
      1 C1         -0.6040    0.4355   -0.0755 C.3       1 MOL         0.2014
      2 C2          0.5410   -0.5398   -0.0399 C.3       1 MOL         0.6085
      3 F1         -0.4812    1.2250   -1.1731 F         1 MOL        -0.1745
      4 F2          0.5556   -1.3294   -1.1352 F         1 MOL        -0.2164
      5 F3          0.4882   -1.3349    1.0494 F         1 MOL        -0.2164
      6 F4          1.7196    0.1226   -0.0056 F         1 MOL        -0.2164
      7 Br1        -0.6094    1.5413    1.5214 Br        1 MOL        -0.1012
      8 H1         -1.5703   -0.0730   -0.1186 H         1 MOL         0.1151
@<TRIPOS>BOND
     1    1    2 1
     2    1    3 1
     3    1    7 1
     4    2    4 1
     5    2    5 1
     6    2    6 1
     7    1    8 1
