@<TRIPOS>MOLECULE
2,3-dimethylphenol
   19    19     0     0     0
SMALL
USER_CHARGES

@<TRIPOS>ATOM
      1 C1          1.8851   -1.0363   -0.1124 C.ar      1 MOL        -0.0939
      2 C2          0.8066   -0.4630    0.5610 C.ar      1 MOL        -0.1637
      3 C3          2.9210   -1.6309    0.6081 C.ar      1 MOL        -0.2148
      4 C4          0.7638   -0.4841    1.9551 C.ar      1 MOL        -0.0448
      5 C5          1.7997   -1.0786    2.6757 C.ar      1 MOL        -0.0972
      6 C6          2.8783   -1.6520    2.0022 C.ar      1 MOL         0.1230
      7 C7         -0.4023    0.1366    2.6520 C.3       1 MOL        -0.0562
      8 C8          1.7602   -1.1027    4.1704 C.3       1 MOL        -0.0451
      9 O1          3.8999   -2.2361    2.6889 O.3       1 MOL        -0.5011
     10 H1          1.9177   -1.0190   -1.1979 H         1 MOL         0.1306
     11 H2          0.0047   -0.0010   -0.0090 H         1 MOL         0.1326
     12 H3          3.7588   -2.0743    0.0770 H         1 MOL         0.1324
     13 H4         -1.1951   -0.6056    2.8004 H         1 MOL         0.0460
     14 H5         -0.1113    0.5379    3.6306 H         1 MOL         0.0460
     15 H6         -0.8107    0.9736    2.0722 H         1 MOL         0.0460
     16 H7          1.2531   -2.0084    4.5205 H         1 MOL         0.0475
     17 H8          2.7719   -1.0813    4.5921 H         1 MOL         0.0475
     18 H9          1.2296   -0.2282    4.5650 H         1 MOL         0.0475
     19 H10         4.5638   -2.5816    2.0718 H         1 MOL         0.4175
@<TRIPOS>BOND
     1    1    2 ar
     2    1    3 ar
     3    2    4 ar
     4    3    6 ar
     5    4    5 ar
     6    4    7 1
     7    5    6 ar
     8    5    8 1
     9    6    9 1
    10    1   10 1
    11    2   11 1
    12    3   12 1
    13    7   13 1
    14    7   14 1
    15    7   15 1
    16    8   16 1
    17    8   17 1
    18    8   18 1
    19    9   19 1
