@<TRIPOS>MOLECULE
(2S)-2-methyltetrahydrofuran
   16    16     0     0     0
SMALL
USER_CHARGES

@<TRIPOS>ATOM
      1 C1          0.9499   -0.4348    0.3331 C.3       1 MOL        -0.1121
      2 C2          0.6909   -1.4844    1.3846 C.3       1 MOL        -0.1098
      3 C3          1.5629   -1.2542   -0.7826 C.3       1 MOL         0.1233
      4 C4          0.2544   -2.6641    0.5333 C.3       1 MOL         0.1335
      5 C5          0.5047   -4.0085    1.1886 C.3       1 MOL        -0.0969
      6 O1          1.0007   -2.5718   -0.6918 O.3       1 MOL        -0.4289
      7 H1          0.0002    0.0003   -0.0002 H         1 MOL         0.0546
      8 H2          1.5977    0.3778    0.6718 H         1 MOL         0.0546
      9 H3          1.6225   -1.7070    1.9190 H         1 MOL         0.0560
     10 H4         -0.0633   -1.1874    2.1185 H         1 MOL         0.0560
     11 H5          1.3606   -0.8342   -1.7719 H         1 MOL         0.0465
     12 H6          2.6470   -1.3459   -0.6568 H         1 MOL         0.0465
     13 H7         -0.8070   -2.5719    0.2731 H         1 MOL         0.0447
     14 H8          1.5598   -4.1120    1.4526 H         1 MOL         0.0440
     15 H9          0.2353   -4.8192    0.5076 H         1 MOL         0.0440
     16 H10        -0.0927   -4.1050    2.0982 H         1 MOL         0.0440
@<TRIPOS>BOND
     1    1    2 1
     2    1    3 1
     3    2    4 1
     4    3    6 1
     5    4    5 1
     6    4    6 1
     7    1    7 1
     8    1    8 1
     9    2    9 1
    10    2   10 1
    11    3   11 1
    12    3   12 1
    13    4   13 1
    14    5   14 1
    15    5   15 1
    16    5   16 1
