@<TRIPOS>MOLECULE
1-methylcyclohexene
   19    19     0     0     0
SMALL
USER_CHARGES

@<TRIPOS>ATOM
      1 C1          0.1963    2.0094    0.6416 C.2       1 MOL        -0.1716
      2 C2          0.6071    2.4535    1.8421 C.2       1 MOL        -0.1151
      3 C3         -0.6330    0.7736    0.4510 C.3       1 MOL        -0.0444
      4 C4          0.2913    1.7119    3.1175 C.3       1 MOL        -0.0416
      5 C5         -1.2420    0.2490    1.7515 C.3       1 MOL        -0.0755
      6 C6         -0.2263    0.2896    2.8870 C.3       1 MOL        -0.0749
      7 C7          1.4044    3.7154    1.9912 C.3       1 MOL        -0.0590
      8 H1          0.4599    2.5593   -0.2581 H         1 MOL         0.1196
      9 H2         -1.4396    0.9834   -0.2607 H         1 MOL         0.0454
     10 H3         -0.0004   -0.0001   -0.0004 H         1 MOL         0.0454
     11 H4          1.1866    1.6559    3.7482 H         1 MOL         0.0457
     12 H5         -0.4596    2.2859    3.6747 H         1 MOL         0.0457
     13 H6         -2.1139    0.8585    2.0217 H         1 MOL         0.0399
     14 H7         -1.6034   -0.7748    1.6037 H         1 MOL         0.0399
     15 H8          0.6152   -0.3725    2.6458 H         1 MOL         0.0401
     16 H9         -0.6767   -0.0925    3.8101 H         1 MOL         0.0401
     17 H10         0.7292    4.5573    2.1257 H         1 MOL         0.0400
     18 H11         2.0084    3.8709    1.0998 H         1 MOL         0.0400
     19 H12         2.0592    3.6309    2.8558 H         1 MOL         0.0400
@<TRIPOS>BOND
     1    1    2 2
     2    1    3 1
     3    2    4 1
     4    2    7 1
     5    3    5 1
     6    4    6 1
     7    5    6 1
     8    1    8 1
     9    3    9 1
    10    3   10 1
    11    4   11 1
    12    4   12 1
    13    5   13 1
    14    5   14 1
    15    6   15 1
    16    6   16 1
    17    7   17 1
    18    7   18 1
    19    7   19 1
