@<TRIPOS>MOLECULE
(E)-hex-2-enal
   17    16     0     0     0
SMALL
USER_CHARGES

@<TRIPOS>ATOM
      1 C1          0.4277   -0.6333   -1.9846 C.2       1 MOL        -0.2799
      2 C2         -0.4112   -0.3116   -0.9925 C.2       1 MOL        -0.0880
      3 C3          0.0180   -1.6511   -2.9710 C.2       1 MOL         0.5577
      4 C4          0.1852    1.1417    2.5244 C.3       1 MOL        -0.0945
      5 C5         -0.0929    0.7142    0.0569 C.3       1 MOL        -0.0655
      6 C6         -0.1633    0.1124    1.4606 C.3       1 MOL        -0.0823
      7 O1          0.7455   -1.9837   -3.8988 O.2       1 MOL        -0.5275
      8 H1          1.4032   -0.1754   -2.0963 H         1 MOL         0.1514
      9 H2         -1.3842   -0.7921   -0.9207 H         1 MOL         0.1244
     10 H3         -0.9803   -2.0971   -2.8280 H         1 MOL        -0.0106
     11 H4          1.1875    1.5507    2.3608 H         1 MOL         0.0353
     12 H5         -0.5301    1.9704    2.5178 H         1 MOL         0.0353
     13 H6          0.1637    0.6823    3.5175 H         1 MOL         0.0353
     14 H7          0.9018    1.1457   -0.1098 H         1 MOL         0.0580
     15 H8         -0.8141    1.5355   -0.0317 H         1 MOL         0.0580
     16 H9         -1.1709   -0.2754    1.6544 H         1 MOL         0.0463
     17 H10         0.5285   -0.7348    1.5415 H         1 MOL         0.0463
@<TRIPOS>BOND
     1    1    2 2
     2    1    3 1
     3    2    5 1
     4    3    7 2
     5    4    6 1
     6    5    6 1
     7    1    8 1
     8    2    9 1
     9    3   10 1
    10    4   11 1
    11    4   12 1
    12    4   13 1
    13    5   14 1
    14    5   15 1
    15    6   16 1
    16    6   17 1
