@<TRIPOS>MOLECULE
isobutane
   14    13     0     0     0
SMALL
USER_CHARGES

@<TRIPOS>ATOM
      1 C1          0.6623   -0.3793   -0.7853 C.3       1 MOL        -0.0892
      2 C2         -0.0690    1.4478   -2.3443 C.3       1 MOL        -0.0892
      3 C3          1.0050   -0.6288   -3.2598 C.3       1 MOL        -0.0892
      4 C4          0.1007   -0.0597   -2.1688 C.3       1 MOL        -0.0706
      5 H1          1.6514    0.0694   -0.6429 H         1 MOL         0.0328
      6 H2          0.0013    0.0023   -0.0000 H         1 MOL         0.0328
      7 H3          0.7580   -1.4612   -0.6452 H         1 MOL         0.0328
      8 H4          0.8912    1.9690   -2.2639 H         1 MOL         0.0328
      9 H5         -0.7401    1.8548   -1.5807 H         1 MOL         0.0328
     10 H6         -0.4985    1.6788   -3.3249 H         1 MOL         0.0328
     11 H7          2.0076   -0.1898   -3.2157 H         1 MOL         0.0328
     12 H8          0.5901   -0.4267   -4.2530 H         1 MOL         0.0328
     13 H9          1.1058   -1.7142   -3.1540 H         1 MOL         0.0328
     14 H10        -0.8858   -0.5306   -2.2580 H         1 MOL         0.0429
@<TRIPOS>BOND
     1    1    4 1
     2    2    4 1
     3    3    4 1
     4    1    5 1
     5    1    6 1
     6    1    7 1
     7    2    8 1
     8    2    9 1
     9    2   10 1
    10    3   11 1
    11    3   12 1
    12    3   13 1
    13    4   14 1
