@<TRIPOS>MOLECULE
pyridine
   11    11     0     0     0
SMALL
USER_CHARGES

@<TRIPOS>ATOM
      1 C1          1.3879   -0.0684    1.6522 C.ar      1 MOL        -0.0947
      2 C2          0.2265   -0.4197    0.9733 C.ar      1 MOL        -0.2461
      3 C3          1.6520   -0.6227    2.8997 C.ar      1 MOL        -0.2461
      4 C4         -0.6317   -1.3224    1.5803 C.ar      1 MOL         0.3932
      5 C5          0.7299   -1.5161    3.4206 C.ar      1 MOL         0.3932
      6 N1         -0.4092   -1.8816    2.7908 N.ar      1 MOL        -0.6655
      7 H1          2.0856    0.6366    1.2102 H         1 MOL         0.1356
      8 H2          0.0003   -0.0005   -0.0002 H         1 MOL         0.1438
      9 H3          2.5508   -0.3630    3.4473 H         1 MOL         0.1438
     10 H4         -1.5509   -1.6283    1.0918 H         1 MOL         0.0213
     11 H5          0.8883   -1.9761    4.3905 H         1 MOL         0.0213
@<TRIPOS>BOND
     1    1    2 ar
     2    1    3 ar
     3    2    4 ar
     4    3    5 ar
     5    4    6 ar
     6    5    6 ar
     7    1    7 1
     8    2    8 1
     9    3    9 1
    10    4   10 1
    11    5   11 1
