@<TRIPOS>MOLECULE
1-benzylimidazole
   22    23     0     0     0
SMALL
USER_CHARGES

@<TRIPOS>ATOM
      1 C1          1.8851   -1.0363   -0.1124 C.ar      1 MOL        -0.1179
      2 C2          0.8066   -0.4630    0.5610 C.ar      1 MOL        -0.1281
      3 C3          2.9210   -1.6309    0.6081 C.ar      1 MOL        -0.1281
      4 C4          0.7638   -0.4841    1.9551 C.ar      1 MOL        -0.1096
      5 C5          2.8783   -1.6520    2.0022 C.ar      1 MOL        -0.1096
      6 C6          2.0004    2.2631    5.4380 C.2       1 MOL         0.2878
      7 C7          1.2500    1.2860    4.8276 C.2       1 MOL        -0.2522
      8 C8          3.2802    0.5682    5.2963 C.2       1 MOL         0.3853
      9 C9          1.7997   -1.0786    2.6757 C.ar      1 MOL        -0.1190
     10 C10         1.7548   -1.1014    4.1663 C.3       1 MOL         0.0876
     11 N1          3.2634    1.8101    5.7269 N.2       1 MOL        -0.6659
     12 N2          2.0833    0.2064    4.7433 N.pl3     1 MOL        -0.2058
     13 H1          1.9176   -1.0210   -1.1980 H         1 MOL         0.1345
     14 H2         -0.0006   -0.0010    0.0001 H         1 MOL         0.1359
     15 H3          3.7604   -2.0783    0.0841 H         1 MOL         0.1359
     16 H4         -0.0804   -0.0348    2.4713 H         1 MOL         0.1321
     17 H5          3.6899   -2.1173    2.5553 H         1 MOL         0.1321
     18 H6          1.6956    3.2698    5.6840 H         1 MOL         0.0407
     19 H7          0.2335    1.2669    4.4600 H         1 MOL         0.1745
     20 H8          4.1207   -0.1097    5.3565 H         1 MOL         0.0573
     21 H9          0.7603   -1.3910    4.5415 H         1 MOL         0.0662
     22 H10         2.4594   -1.8369    4.5861 H         1 MOL         0.0662
@<TRIPOS>BOND
     1    1    2 ar
     2    1    3 ar
     3    2    4 ar
     4    3    5 ar
     5    4    9 ar
     6    5    9 ar
     7    6    7 2
     8    6   11 1
     9    7   12 1
    10    8   11 2
    11    8   12 1
    12    9   10 1
    13   10   12 1
    14    1   13 1
    15    2   14 1
    16    3   15 1
    17    4   16 1
    18    5   17 1
    19    6   18 1
    20    7   19 1
    21    8   20 1
    22   10   21 1
    23   10   22 1
