@<TRIPOS>MOLECULE
(2E)-3,7-dimethylocta-2,6-dien-1-ol
   29    28     0     0     0
SMALL
USER_CHARGES

@<TRIPOS>ATOM
      1 C1         -1.5470    2.8490   -1.1146 C.2       1 MOL        -0.1772
      2 C2         -0.7525   -0.1894    0.8843 C.2       1 MOL        -0.1835
      3 C3         -1.2684    3.9955   -0.4660 C.2       1 MOL        -0.1096
      4 C4         -1.9422    0.4040    0.6655 C.2       1 MOL        -0.1052
      5 C5          0.0727    4.6585   -0.6360 C.3       1 MOL        -0.0617
      6 C6         -2.1988    4.7129    0.4701 C.3       1 MOL        -0.0617
      7 C7         -2.7533    0.9174    1.8278 C.3       1 MOL        -0.0657
      8 C8         -2.8193    2.0484   -1.0799 C.3       1 MOL        -0.0448
      9 C9         -0.0716   -0.4306    2.1939 C.3       1 MOL         0.1645
     10 C10        -2.5832    0.5820   -0.6949 C.3       1 MOL        -0.0377
     11 O1          1.2003    0.2032    2.1668 O.3       1 MOL        -0.6000
     12 H1         -0.7756    2.4260   -1.7574 H         1 MOL         0.1165
     13 H2         -0.2052   -0.5694    0.0222 H         1 MOL         0.1420
     14 H3          0.0431    5.3638   -1.4731 H         1 MOL         0.0410
     15 H4          0.3800    5.2151    0.2556 H         1 MOL         0.0410
     16 H5          0.8431    3.9078   -0.8401 H         1 MOL         0.0410
     17 H6         -2.0522    4.3532    1.4939 H         1 MOL         0.0410
     18 H7         -2.0630    5.7957    0.4789 H         1 MOL         0.0410
     19 H8         -3.2388    4.5222    0.1840 H         1 MOL         0.0410
     20 H9         -2.4887    1.9577    2.0442 H         1 MOL         0.0422
     21 H10        -2.5666    0.3179    2.7237 H         1 MOL         0.0422
     22 H11        -3.8302    0.8861    1.6306 H         1 MOL         0.0422
     23 H12        -3.5772    2.4987   -0.4328 H         1 MOL         0.0464
     24 H13        -3.2487    2.0748   -2.0898 H         1 MOL         0.0464
     25 H14         0.0806   -1.5061    2.3306 H         1 MOL         0.0279
     26 H15        -0.6260   -0.0533    3.0548 H         1 MOL         0.0279
     27 H16        -3.5506    0.0622   -0.6901 H         1 MOL         0.0519
     28 H17        -2.0046    0.0807   -1.4787 H         1 MOL         0.0519
     29 H18         1.6177    0.0305    3.0262 H         1 MOL         0.3992
@<TRIPOS>BOND
     1    1    3 2
     2    1    8 1
     3    2    4 2
     4    2    9 1
     5    3    5 1
     6    3    6 1
     7    4    7 1
     8    4   10 1
     9    8   10 1
    10    9   11 1
    11    1   12 1
    12    2   13 1
    13    5   14 1
    14    5   15 1
    15    5   16 1
    16    6   17 1
    17    6   18 1
    18    6   19 1
    19    7   20 1
    20    7   21 1
    21    7   22 1
    22    8   23 1
    23    8   24 1
    24    9   25 1
    25    9   26 1
    26   10   27 1
    27   10   28 1
    28   11   29 1
