@<TRIPOS>MOLECULE
1-cyclopropylethanone
   14    14     0     0     0
SMALL
USER_CHARGES

@<TRIPOS>ATOM
      1 C1         -0.8197   -1.5948    0.8339 C.2       1 MOL         0.5966
      2 C2         -0.4245    0.0436   -1.1005 C.3       1 MOL        -0.1111
      3 C3          0.9244   -0.3973   -0.6166 C.3       1 MOL        -0.1111
      4 C4         -0.2350   -0.3431    0.3416 C.3       1 MOL        -0.2422
      5 C5         -2.2991   -1.7777    0.6278 C.3       1 MOL        -0.2025
      6 O1         -0.1341   -2.4538    1.3862 O.2       1 MOL        -0.5327
      7 H1         -0.5538    1.0910   -1.3447 H         1 MOL         0.0767
      8 H2         -0.9797   -0.6359   -1.7357 H         1 MOL         0.0767
      9 H3          1.2772   -1.3736   -0.9260 H         1 MOL         0.0767
     10 H4          1.7004    0.3541   -0.5362 H         1 MOL         0.0767
     11 H5         -0.2293    0.4668    1.0637 H         1 MOL         0.1049
     12 H6         -2.4799   -2.2657   -0.3339 H         1 MOL         0.0637
     13 H7         -2.7921   -0.8024    0.6274 H         1 MOL         0.0637
     14 H8         -2.7051   -2.4054    1.4247 H         1 MOL         0.0637
@<TRIPOS>BOND
     1    1    4 1
     2    1    5 1
     3    1    6 2
     4    2    3 1
     5    2    4 1
     6    3    4 1
     7    2    7 1
     8    2    8 1
     9    3    9 1
    10    3   10 1
    11    4   11 1
    12    5   12 1
    13    5   13 1
    14    5   14 1
