@<TRIPOS>MOLECULE
2-chloro-2-methyl-propane
   14    13     0     0     0
SMALL
USER_CHARGES

@<TRIPOS>ATOM
      1 C1          0.7749    0.2118   -0.7456 C.3       1 MOL        -0.0987
      2 C2         -0.8097    1.6428   -2.0696 C.3       1 MOL        -0.0987
      3 C3          1.6695    1.8600   -2.4175 C.3       1 MOL        -0.0987
      4 C4          0.5635    1.5787   -1.3987 C.3       1 MOL         0.0824
      5 Cl1         0.6327    2.8393   -0.1192 Cl        1 MOL        -0.2204
      6 H1          1.7551    0.1473   -0.2591 H         1 MOL         0.0482
      7 H2          0.0105    0.0078    0.0129 H         1 MOL         0.0482
      8 H3          0.7226   -0.5901   -1.4905 H         1 MOL         0.0482
      9 H4         -0.9788    2.6166   -2.5436 H         1 MOL         0.0482
     10 H5         -0.9151    0.8719   -2.8415 H         1 MOL         0.0482
     11 H6         -1.6108    1.4885   -1.3379 H         1 MOL         0.0482
     12 H7          1.5341    2.8365   -2.8961 H         1 MOL         0.0482
     13 H8          1.6895    1.1002   -3.2070 H         1 MOL         0.0482
     14 H9          2.6542    1.8619   -1.9363 H         1 MOL         0.0482
@<TRIPOS>BOND
     1    1    4 1
     2    2    4 1
     3    3    4 1
     4    4    5 1
     5    1    6 1
     6    1    7 1
     7    1    8 1
     8    2    9 1
     9    2   10 1
    10    2   11 1
    11    3   12 1
    12    3   13 1
    13    3   14 1
