@<TRIPOS>MOLECULE
methyl acetate
   11    10     0     0     0
SMALL
USER_CHARGES

@<TRIPOS>ATOM
      1 C1         -1.6376   -0.5840   -1.2367 C.2       1 MOL         0.6314
      2 C2         -0.9373   -0.5552    0.0879 C.3       1 MOL        -0.1503
      3 C3         -2.5912    0.8103   -2.8891 C.3       1 MOL         0.1266
      4 O1         -1.9037   -1.6095   -1.8489 O.2       1 MOL        -0.5388
      5 O2         -1.9187    0.6904   -1.6316 O.3       1 MOL        -0.4469
      6 H1          0.1431   -0.4965   -0.0649 H         1 MOL         0.0759
      7 H2         -1.1972   -1.4466    0.6644 H         1 MOL         0.0759
      8 H3         -1.2585    0.3273    0.6488 H         1 MOL         0.0759
      9 H4         -2.7677    1.8659   -3.1096 H         1 MOL         0.0500
     10 H5         -3.5415    0.2719   -2.8480 H         1 MOL         0.0500
     11 H6         -1.9629    0.3771   -3.6710 H         1 MOL         0.0500
@<TRIPOS>BOND
     1    1    2 1
     2    1    4 2
     3    1    5 1
     4    3    5 1
     5    2    6 1
     6    2    7 1
     7    2    8 1
     8    3    9 1
     9    3   10 1
    10    3   11 1
