@<TRIPOS>MOLECULE
2-chloro-4-hydroxy-3,5-dimethoxy-benzaldehyde
   23    23     0     0     0
SMALL
USER_CHARGES

@<TRIPOS>ATOM
      1 C1          1.8851   -1.0363   -0.1124 C.ar      1 MOL        -0.1230
      2 C2          0.8066   -0.4630    0.5610 C.ar      1 MOL        -0.1808
      3 C3          2.9210   -1.6309    0.6081 C.ar      1 MOL         0.0441
      4 C4          2.8783   -1.6520    2.0022 C.ar      1 MOL         0.1283
      5 C5          1.7997   -1.0786    2.6757 C.ar      1 MOL         0.0802
      6 C6          0.7638   -0.4841    1.9551 C.ar      1 MOL         0.0381
      7 C7         -0.2508    0.1458   -0.2377 C.2       1 MOL         0.5839
      8 C8          3.9347   -2.1229   -1.4862 C.3       1 MOL         0.1178
      9 C9          2.3772   -0.0113    4.7209 C.3       1 MOL         0.1146
     10 O1         -0.0502    1.0831   -1.0118 O.2       1 MOL        -0.5115
     11 O2          3.8921   -2.2338    2.7045 O.3       1 MOL        -0.4719
     12 O3          3.9687   -2.1873   -0.0618 O.3       1 MOL        -0.3425
     13 O4          1.7753   -1.1090    4.0399 O.3       1 MOL        -0.3140
     14 Cl1        -0.5707    0.2249    2.8016 Cl        1 MOL        -0.0648
     15 H1          1.9247   -1.0233   -1.1994 H         1 MOL         0.1572
     16 H2         -1.2740   -0.2698   -0.1266 H         1 MOL         0.0142
     17 H3          4.8276   -2.6023   -1.8947 H         1 MOL         0.0510
     18 H4          3.8916   -1.0780   -1.8036 H         1 MOL         0.0510
     19 H5          3.0459   -2.6475   -1.8446 H         1 MOL         0.0510
     20 H6          2.2898   -0.1588    5.8001 H         1 MOL         0.0452
     21 H7          1.8805    0.9171    4.4279 H         1 MOL         0.0452
     22 H8          3.4336    0.0409    4.4470 H         1 MOL         0.0452
     23 H9          4.5615   -2.5835    2.0965 H         1 MOL         0.4413
@<TRIPOS>BOND
     1    1    2 ar
     2    1    3 ar
     3    2    6 ar
     4    2    7 1
     5    3    4 ar
     6    3   12 1
     7    4    5 ar
     8    4   11 1
     9    5    6 ar
    10    5   13 1
    11    6   14 1
    12    7   10 2
    13    8   12 1
    14    9   13 1
    15    1   15 1
    16    7   16 1
    17    8   17 1
    18    8   18 1
    19    8   19 1
    20    9   20 1
    21    9   21 1
    22    9   22 1
    23   11   23 1
