@<TRIPOS>MOLECULE
bromoethane
    8     7     0     0     0
SMALL
USER_CHARGES

@<TRIPOS>ATOM
      1 C1          0.0125   -0.7247    0.8210 C.3       1 MOL        -0.0967
      2 C2          1.1399   -0.4427    1.7865 C.3       1 MOL        -0.0076
      3 Br1         2.8461   -0.5455    0.8594 Br        1 MOL        -0.1820
      4 H1          0.0014    0.0238    0.0227 H         1 MOL         0.0482
      5 H2          0.1215   -1.7113    0.3581 H         1 MOL         0.0482
      6 H3         -0.9598   -0.6967    1.3244 H         1 MOL         0.0482
      7 H4          1.1722   -1.1779    2.5944 H         1 MOL         0.0709
      8 H5          1.0673    0.5629    2.2082 H         1 MOL         0.0709
@<TRIPOS>BOND
     1    1    2 1
     2    2    3 1
     3    1    4 1
     4    1    5 1
     5    1    6 1
     6    2    7 1
     7    2    8 1
