@<TRIPOS>MOLECULE
(2R,3R,4R,5R)-hexane-1,2,3,4,5,6-hexol
   26    25     0     0     0
SMALL
USER_CHARGES

@<TRIPOS>ATOM
      1 C1          0.2788   -0.8744    1.4858 C.3       1 MOL         0.1174
      2 C2          1.2292   -1.5518   -3.1284 C.3       1 MOL         0.1175
      3 C3          1.1627   -1.7454    0.5958 C.3       1 MOL         0.1004
      4 C4          0.1594   -0.9168   -2.2412 C.3       1 MOL         0.1004
      5 C5          0.3824   -2.6675   -0.3626 C.3       1 MOL         0.1357
      6 C6         -0.5633   -1.9135   -1.3127 C.3       1 MOL         0.1357
      7 O1          1.1140   -0.0980    2.3409 O.3       1 MOL        -0.6033
      8 O2          1.8046   -0.5581   -3.9734 O.3       1 MOL        -0.6033
      9 O3          1.9505   -2.5692    1.4649 O.3       1 MOL        -0.6013
     10 O4         -0.8140   -0.3299   -3.1142 O.3       1 MOL        -0.6013
     11 O5         -0.3825   -3.6075    0.3914 O.3       1 MOL        -0.5729
     12 O6         -1.2834   -2.8643   -2.0963 O.3       1 MOL        -0.5729
     13 H1         -0.3754   -1.4765    2.1210 H         1 MOL         0.0444
     14 H2         -0.3244   -0.1791    0.8931 H         1 MOL         0.0444
     15 H3          0.8016   -2.3181   -3.7826 H         1 MOL         0.0444
     16 H4          2.0391   -1.9979   -2.5457 H         1 MOL         0.0444
     17 H5          1.8704   -1.1170    0.0435 H         1 MOL         0.0526
     18 H6          0.5915   -0.0916   -1.6643 H         1 MOL         0.0526
     19 H7          1.1123   -3.2402   -0.9464 H         1 MOL         0.0496
     20 H8         -1.3019   -1.3527   -0.7283 H         1 MOL         0.0496
     21 H9          0.5229    0.4405    2.8894 H         1 MOL         0.4084
     22 H10         2.4729   -1.0082   -4.5129 H         1 MOL         0.4084
     23 H11         2.4677   -1.9625    2.0130 H         1 MOL         0.4134
     24 H12        -1.4838    0.0676   -2.5404 H         1 MOL         0.4134
     25 H13         0.2514   -4.1157    0.9198 H         1 MOL         0.4110
     26 H14        -1.9207   -2.3588   -2.6234 H         1 MOL         0.4110
@<TRIPOS>BOND
     1    1    3 1
     2    1    7 1
     3    2    4 1
     4    2    8 1
     5    3    5 1
     6    3    9 1
     7    4    6 1
     8    4   10 1
     9    5    6 1
    10    5   11 1
    11    6   12 1
    12    1   13 1
    13    1   14 1
    14    2   15 1
    15    2   16 1
    16    3   17 1
    17    4   18 1
    18    5   19 1
    19    6   20 1
    20    7   21 1
    21    8   22 1
    22    9   23 1
    23   10   24 1
    24   11   25 1
    25   12   26 1
