@<TRIPOS>MOLECULE
1-nitropropane
   13    12     0     0     0
SMALL
USER_CHARGES

@<TRIPOS>ATOM
      1 C1          1.0421    0.0282   -0.3332 C.3       1 MOL        -0.0943
      2 C2          1.4375    1.4520   -0.6967 C.3       1 MOL        -0.0948
      3 C3          2.8929    1.5602   -1.1253 C.3       1 MOL        -0.0762
      4 N1          3.2102    2.9560   -1.4296 N.pl3     1 MOL         0.2290
      5 O1          3.6401    3.6763   -0.5058 O.3       1 MOL        -0.2102
      6 O2          3.0507    3.3485   -2.6033 O.2       1 MOL        -0.2102
      7 H1          1.1927   -0.6488   -1.1802 H         1 MOL         0.0448
      8 H2          1.6530   -0.3313    0.5007 H         1 MOL         0.0448
      9 H3         -0.0079   -0.0285   -0.0297 H         1 MOL         0.0448
     10 H4          1.2731    2.0973    0.1737 H         1 MOL         0.0666
     11 H5          0.7834    1.8130   -1.4987 H         1 MOL         0.0666
     12 H6          3.5554    1.2328   -0.3185 H         1 MOL         0.0945
     13 H7          3.0995    0.9530   -2.0119 H         1 MOL         0.0945
@<TRIPOS>BOND
     1    1    2 1
     2    2    3 1
     3    3    4 1
     4    4    5 1
     5    4    6 2
     6    1    7 1
     7    1    8 1
     8    1    9 1
     9    2   10 1
    10    2   11 1
    11    3   12 1
    12    3   13 1
