@<TRIPOS>MOLECULE
4-methylsulfonyl-2,6-dinitro-N,N-dipropyl-aniline
   42    42     0     0     0
SMALL
USER_CHARGES

@<TRIPOS>ATOM
      1 C1          3.2271   -2.4538   -3.9787 C.ar      1 MOL         0.0406
      2 C2          3.7452   -2.3881   -1.6198 C.ar      1 MOL         0.0406
      3 C3          3.0768   -0.3694   -2.7666 C.ar      1 MOL         0.3281
      4 C4          2.9542   -1.0862   -3.9569 C.ar      1 MOL        -0.1957
      5 C5          3.4723   -1.0203   -1.5980 C.ar      1 MOL        -0.1957
      6 C6          3.6226   -3.1048   -2.8101 C.ar      1 MOL        -0.3670
      7 C7         -0.4696    2.8763   -3.3360 C.3       1 MOL        -0.0899
      8 C8          5.2303    3.9072   -2.0710 C.3       1 MOL        -0.0899
      9 C9          5.6944   -4.9202   -3.2175 C.3       1 MOL        -0.3733
     10 C10         0.9177    2.3224   -3.6280 C.3       1 MOL        -0.1095
     11 C11         4.1227    2.8960   -1.8114 C.3       1 MOL        -0.1095
     12 C12         1.4837    1.5105   -2.4692 C.3       1 MOL         0.2366
     13 C13         3.8846    1.9663   -2.9952 C.3       1 MOL         0.2366
     14 N1          2.8015    1.0088   -2.7448 N.pl3     1 MOL        -0.7887
     15 N2          2.5518   -0.4494   -5.1648 N.pl3     1 MOL         0.3200
     16 N3          3.6076   -0.3145   -0.3692 N.pl3     1 MOL         0.3200
     17 O1          1.3308   -0.3929   -5.4406 O.3       1 MOL        -0.1803
     18 O2          4.7155    0.1973   -0.0850 O.3       1 MOL        -0.1803
     19 O3          3.4311    0.0349   -5.9148 O.2       1 MOL        -0.1803
     20 O4          2.6146   -0.2269    0.3900 O.2       1 MOL        -0.1803
     21 O5          3.7664   -5.3341   -1.4894 O.2       1 MOL        -0.6424
     22 O6          3.2445   -5.4223   -3.9523 O.2       1 MOL        -0.6424
     23 S1          3.9601   -4.8179   -2.8369 S.o2      1 MOL         1.3943
     24 H1          3.1304   -3.0162   -4.9048 H         1 MOL         0.1862
     25 H2          4.0538   -2.8995   -0.7105 H         1 MOL         0.1862
     26 H3         -1.1772    2.0688   -3.1222 H         1 MOL         0.0397
     27 H4         -0.4356    3.5362   -2.4631 H         1 MOL         0.0397
     28 H5         -0.8535    3.4567   -4.1805 H         1 MOL         0.0397
     29 H6          6.1772    3.4039   -2.2910 H         1 MOL         0.0397
     30 H7          4.9733    4.5350   -2.9304 H         1 MOL         0.0397
     31 H8          5.3810    4.5642   -1.2089 H         1 MOL         0.0397
     32 H9          5.9781   -5.9732   -3.2508 H         1 MOL         0.1239
     33 H10         5.8627   -4.4479   -4.1865 H         1 MOL         0.1239
     34 H11         6.2496   -4.3990   -2.4362 H         1 MOL         0.1239
     35 H12         1.5928    3.1606   -3.8361 H         1 MOL         0.0538
     36 H13         0.8762    1.7066   -4.5343 H         1 MOL         0.0538
     37 H14         3.1955    3.4397   -1.5961 H         1 MOL         0.0538
     38 H15         4.3711    2.3114   -0.9176 H         1 MOL         0.0538
     39 H16         1.5606    2.1372   -1.5752 H         1 MOL         0.0528
     40 H17         0.8424    0.6558   -2.2321 H         1 MOL         0.0528
     41 H18         3.5992    2.5485   -3.8770 H         1 MOL         0.0528
     42 H19         4.7861    1.3962   -3.2405 H         1 MOL         0.0528
@<TRIPOS>BOND
     1    1    4 ar
     2    1    6 ar
     3    2    5 ar
     4    2    6 ar
     5    3    4 ar
     6    3    5 ar
     7    3   14 1
     8    4   15 1
     9    5   16 1
    10    6   23 1
    11    7   10 1
    12    8   11 1
    13    9   23 1
    14   10   12 1
    15   11   13 1
    16   12   14 1
    17   13   14 1
    18   15   17 1
    19   15   19 2
    20   16   18 1
    21   16   20 2
    22   21   23 2
    23   22   23 2
    24    1   24 1
    25    2   25 1
    26    7   26 1
    27    7   27 1
    28    7   28 1
    29    8   29 1
    30    8   30 1
    31    8   31 1
    32    9   32 1
    33    9   33 1
    34    9   34 1
    35   10   35 1
    36   10   36 1
    37   11   37 1
    38   11   38 1
    39   12   39 1
    40   12   40 1
    41   13   41 1
    42   13   42 1
