@<TRIPOS>MOLECULE
1-bromopentane
   17    16     0     0     0
SMALL
USER_CHARGES

@<TRIPOS>ATOM
      1 C1         -1.0596   -1.3964    1.7204 C.3       1 MOL        -0.0929
      2 C2         -0.4815   -0.9323    0.3922 C.3       1 MOL        -0.0792
      3 C3          0.4410    0.2733    0.5771 C.3       1 MOL        -0.0815
      4 C4          1.1027    0.7352   -0.7240 C.3       1 MOL        -0.0817
      5 C5          1.9920    1.9537   -0.5389 C.3       1 MOL        -0.0080
      6 Br1         2.8294    2.4187   -2.2361 Br        1 MOL        -0.1801
      7 H1         -1.6177   -0.5837    2.1955 H         1 MOL         0.0342
      8 H2         -0.2653   -1.7091    2.4056 H         1 MOL         0.0342
      9 H3         -1.7430   -2.2396    1.5782 H         1 MOL         0.0342
     10 H4          0.0727   -1.7590   -0.0670 H         1 MOL         0.0411
     11 H5         -1.3083   -0.6799   -0.2803 H         1 MOL         0.0411
     12 H6         -0.1204    1.1055    1.0194 H         1 MOL         0.0415
     13 H7          1.2329    0.0126    1.2904 H         1 MOL         0.0415
     14 H8          1.6995   -0.0979   -1.1170 H         1 MOL         0.0560
     15 H9          0.3302    0.9419   -1.4754 H         1 MOL         0.0560
     16 H10         2.8050    1.7650    0.1674 H         1 MOL         0.0718
     17 H11         1.4314    2.8383   -0.2273 H         1 MOL         0.0718
@<TRIPOS>BOND
     1    1    2 1
     2    2    3 1
     3    3    4 1
     4    4    5 1
     5    5    6 1
     6    1    7 1
     7    1    8 1
     8    1    9 1
     9    2   10 1
    10    2   11 1
    11    3   12 1
    12    3   13 1
    13    4   14 1
    14    4   15 1
    15    5   16 1
    16    5   17 1
