@<TRIPOS>MOLECULE
2-methoxyethanamine
   14    13     0     0     0
SMALL
USER_CHARGES

@<TRIPOS>ATOM
      1 C1         -0.5556   -4.0349    1.8945 C.3       1 MOL         0.1165
      2 C2         -0.2448   -0.4884    0.9480 C.3       1 MOL         0.1561
      3 C3         -0.3627   -1.9891    0.7542 C.3       1 MOL         0.1223
      4 N1         -0.1167    0.1741   -0.3701 N.3       1 MOL        -0.9222
      5 O1         -0.4496   -2.6238    2.0236 O.3       1 MOL        -0.4221
      6 H1         -0.6202   -4.4885    2.8866 H         1 MOL         0.0329
      7 H2          0.3182   -4.4197    1.3625 H         1 MOL         0.0329
      8 H3         -1.4588   -4.2732    1.3279 H         1 MOL         0.0329
      9 H4         -1.1282   -0.0827    1.4514 H         1 MOL         0.0407
     10 H5          0.6451   -0.2493    1.5380 H         1 MOL         0.0407
     11 H6          0.5272   -2.3723    0.2452 H         1 MOL         0.0331
     12 H7         -1.2496   -2.2509    0.1681 H         1 MOL         0.0331
     13 H8          0.3305    1.0543   -0.3882 H         1 MOL         0.3515
     14 H9         -0.6552   -0.1943   -1.1115 H         1 MOL         0.3515
@<TRIPOS>BOND
     1    1    5 1
     2    2    3 1
     3    2    4 1
     4    3    5 1
     5    1    6 1
     6    1    7 1
     7    1    8 1
     8    2    9 1
     9    2   10 1
    10    3   11 1
    11    3   12 1
    12    4   13 1
    13    4   14 1
