@<TRIPOS>MOLECULE
p-xylene
   18    18     0     0     0
SMALL
USER_CHARGES

@<TRIPOS>ATOM
      1 C1          1.8851   -1.0363   -0.1124 C.ar      1 MOL        -0.1273
      2 C2          0.8066   -0.4630    0.5610 C.ar      1 MOL        -0.1272
      3 C3          2.8783   -1.6520    2.0022 C.ar      1 MOL        -0.1272
      4 C4          1.7997   -1.0786    2.6757 C.ar      1 MOL        -0.1272
      5 C5          2.9210   -1.6309    0.6081 C.ar      1 MOL        -0.0818
      6 C6          0.7638   -0.4841    1.9551 C.ar      1 MOL        -0.0818
      7 C7          4.0745   -2.2441   -0.1111 C.3       1 MOL        -0.0527
      8 C8         -0.3890    0.1306    2.6744 C.3       1 MOL        -0.0527
      9 H1          1.9098   -1.0158   -1.1988 H         1 MOL         0.1298
     10 H2          0.0048   -0.0006   -0.0085 H         1 MOL         0.1298
     11 H3          3.6818   -2.1121    2.5715 H         1 MOL         0.1298
     12 H4          1.7742   -1.0996    3.7620 H         1 MOL         0.1298
     13 H5          4.8665   -1.5012   -0.2664 H         1 MOL         0.0431
     14 H6          4.4940   -3.0867    0.4537 H         1 MOL         0.0431
     15 H7          3.7702   -2.6379   -1.0897 H         1 MOL         0.0431
     16 H8         -1.1818   -0.6113    2.8298 H         1 MOL         0.0431
     17 H9         -0.0841    0.5241    3.6528 H         1 MOL         0.0431
     18 H10        -0.8073    0.9739    2.1094 H         1 MOL         0.0431
@<TRIPOS>BOND
     1    1    2 ar
     2    1    5 ar
     3    2    6 ar
     4    3    4 ar
     5    3    5 ar
     6    4    6 ar
     7    5    7 1
     8    6    8 1
     9    1    9 1
    10    2   10 1
    11    3   11 1
    12    4   12 1
    13    7   13 1
    14    7   14 1
    15    7   15 1
    16    8   16 1
    17    8   17 1
    18    8   18 1
