@<TRIPOS>MOLECULE
(1R,2S,3S,4R,5R,6S,9R,10S)-7,8,9,10,11,11-hexachloro-12-oxapentacyclo[BLAH.BLAH.BLAH.BLAH.BLAH.BLAH]tridec-7-ene
   27    31     0     0     0
SMALL
USER_CHARGES

@<TRIPOS>ATOM
      1 C1         -1.9550   -0.6831    0.4737 C.2       1 MOL        -0.0413
      2 C2         -2.0473    0.5673   -0.0113 C.2       1 MOL        -0.0413
      3 C3          2.5213    0.0728   -0.3073 C.3       1 MOL        -0.1130
      4 C4          1.9566   -0.7205    0.8758 C.3       1 MOL        -0.0473
      5 C5          1.8003    1.3695    0.0738 C.3       1 MOL        -0.0473
      6 C6          0.4161   -0.4998    0.8255 C.3       1 MOL        -0.0722
      7 C7          0.3061    0.9726    0.2573 C.3       1 MOL        -0.0722
      8 C8          2.4309    0.1620    2.0514 C.3       1 MOL         0.0426
      9 C9          2.3249    1.5649    1.5132 C.3       1 MOL         0.0426
     10 C10        -0.6367   -1.2714   -0.0435 C.3       1 MOL         0.0930
     11 C11        -0.7904    0.8183   -0.8534 C.3       1 MOL         0.0930
     12 C12        -0.6931   -0.6159   -1.4560 C.3       1 MOL         0.1432
     13 O1          3.5850    0.9872    1.8669 O.3       1 MOL        -0.3767
     14 Cl1        -3.0177   -1.4841    1.5192 Cl        1 MOL        -0.0041
     15 Cl2        -3.2537    1.7186    0.2774 Cl        1 MOL        -0.0041
     16 Cl3        -0.4902   -3.0095   -0.0121 Cl        1 MOL        -0.0744
     17 Cl4        -0.8678    2.1275   -2.0036 Cl        1 MOL        -0.0744
     18 Cl5         0.8367   -0.8908   -2.4557 Cl        1 MOL        -0.0934
     19 Cl6        -1.9329   -1.1506   -2.5948 Cl        1 MOL        -0.0934
     20 H1          3.6141    0.1679   -0.2730 H         1 MOL         0.0824
     21 H2          2.3170   -0.3141   -1.2821 H         1 MOL         0.0824
     22 H3          2.2831   -1.7580    0.9560 H         1 MOL         0.0969
     23 H4          1.9850    2.2281   -0.5728 H         1 MOL         0.0969
     24 H5          0.0630   -0.5211    1.8693 H         1 MOL         0.0765
     25 H6         -0.1007    1.6405    1.0339 H         1 MOL         0.0765
     26 H7          2.0777   -0.0783    3.0402 H         1 MOL         0.1144
     27 H8          1.8938    2.3532    2.1073 H         1 MOL         0.1144
@<TRIPOS>BOND
     1    1    2 2
     2    1   10 1
     3    1   14 1
     4    2   11 1
     5    2   15 1
     6    3    4 1
     7    3    5 1
     8    4    6 1
     9    4    8 1
    10    5    7 1
    11    5    9 1
    12    6    7 1
    13    6   10 1
    14    7   11 1
    15    8    9 1
    16    8   13 1
    17    9   13 1
    18   10   12 1
    19   10   16 1
    20   11   12 1
    21   11   17 1
    22   12   18 1
    23   12   19 1
    24    3   20 1
    25    3   21 1
    26    4   22 1
    27    5   23 1
    28    6   24 1
    29    7   25 1
    30    8   26 1
    31    9   27 1
