@<TRIPOS>MOLECULE
4-methylaniline
   17    17     0     0     0
SMALL
USER_CHARGES

@<TRIPOS>ATOM
      1 C1          1.8851   -1.0363   -0.1124 C.ar      1 MOL        -0.0932
      2 C2          2.8783   -1.6520    2.0022 C.ar      1 MOL        -0.0932
      3 C3          0.8066   -0.4630    0.5610 C.ar      1 MOL        -0.1863
      4 C4          1.7997   -1.0786    2.6757 C.ar      1 MOL        -0.1863
      5 C5          2.9210   -1.6309    0.6081 C.ar      1 MOL        -0.1205
      6 C6          0.7638   -0.4841    1.9551 C.ar      1 MOL         0.1315
      7 C7          4.0744   -2.2445   -0.1110 C.3       1 MOL        -0.0457
      8 N1         -0.3256    0.0971    2.6364 N.pl3     1 MOL        -0.8159
      9 H1          1.9098   -1.0163   -1.1986 H         1 MOL         0.1293
     10 H2          3.6798   -2.1144    2.5719 H         1 MOL         0.1293
     11 H3          0.0040   -0.0036   -0.0102 H         1 MOL         0.1298
     12 H4          1.7764   -1.1014    3.7621 H         1 MOL         0.1298
     13 H5          4.8665   -1.5018   -0.2666 H         1 MOL         0.0400
     14 H6          4.4938   -3.0871    0.4540 H         1 MOL         0.0400
     15 H7          3.7699   -2.6386   -1.0895 H         1 MOL         0.0400
     16 H8         -1.0376    0.5627    2.1108 H         1 MOL         0.3857
     17 H9         -0.3211    0.1169    3.6362 H         1 MOL         0.3857
@<TRIPOS>BOND
     1    1    3 ar
     2    1    5 ar
     3    2    4 ar
     4    2    5 ar
     5    3    6 ar
     6    4    6 ar
     7    5    7 1
     8    6    8 1
     9    1    9 1
    10    2   10 1
    11    3   11 1
    12    4   12 1
    13    7   13 1
    14    7   14 1
    15    7   15 1
    16    8   16 1
    17    8   17 1
