@<TRIPOS>MOLECULE
2-methylpyrazine
   13    13     0     0     0
SMALL
USER_CHARGES

@<TRIPOS>ATOM
      1 C1         -1.5571   -1.3073    0.7174 C.ar      1 MOL         0.2709
      2 C2         -0.3211   -1.0181    0.1824 C.ar      1 MOL         0.2876
      3 C3         -1.0772   -3.5410    0.6188 C.ar      1 MOL         0.2757
      4 C4          0.1585   -3.2519    0.0831 C.ar      1 MOL         0.3016
      5 C5          1.1054   -4.3465   -0.2662 C.3       1 MOL        -0.1471
      6 N1         -1.9573   -2.5739    0.9453 N.ar      1 MOL        -0.6242
      7 N2          0.5588   -1.9852   -0.1444 N.ar      1 MOL        -0.6357
      8 H1         -2.2637   -0.5296    0.9796 H         1 MOL         0.0327
      9 H2         -0.0002    0.0000   -0.0002 H         1 MOL         0.0342
     10 H3         -1.4057   -4.5568    0.8048 H         1 MOL         0.0324
     11 H4          0.9500   -4.6732   -1.3026 H         1 MOL         0.0573
     12 H5          2.1497   -4.0229   -0.1584 H         1 MOL         0.0573
     13 H6          0.9747   -5.2154    0.3937 H         1 MOL         0.0573
@<TRIPOS>BOND
     1    1    2 ar
     2    1    6 ar
     3    2    7 ar
     4    3    4 ar
     5    3    6 ar
     6    4    5 1
     7    4    7 ar
     8    1    8 1
     9    2    9 1
    10    3   10 1
    11    5   11 1
    12    5   12 1
    13    5   13 1
