@<TRIPOS>MOLECULE
3,3,3-trimethoxypropanenitrile
   21    20     0     0     0
SMALL
USER_CHARGES

@<TRIPOS>ATOM
      1 C1          1.3684   -2.1910   -0.3753 C.1       1 MOL         0.2224
      2 C2         -0.5707    0.9482    2.0210 C.3       1 MOL         0.1306
      3 C3         -1.6749   -0.9122   -1.4616 C.3       1 MOL         0.1306
      4 C4          0.9457    2.1171   -0.8051 C.3       1 MOL         0.1306
      5 C5          0.6614   -1.3150    0.5754 C.3       1 MOL        -0.0417
      6 C6          0.1206   -0.0252   -0.0936 C.3       1 MOL         0.5337
      7 N1          1.9246   -2.8818   -1.1234 N.1       1 MOL        -0.3573
      8 O1         -0.9294    0.5640    0.7015 O.3       1 MOL        -0.4433
      9 O2         -0.3759   -0.3375   -1.4153 O.3       1 MOL        -0.4433
     10 O3          1.2561    0.8654   -0.2056 O.3       1 MOL        -0.4433
     11 H1         -1.4395    1.3790    2.5247 H         1 MOL         0.0436
     12 H2          0.2403    1.6797    1.9808 H         1 MOL         0.0436
     13 H3         -0.2352    0.0650    2.5696 H         1 MOL         0.0436
     14 H4         -1.9510   -1.1075   -2.5007 H         1 MOL         0.0436
     15 H5         -2.3938   -0.2272   -1.0050 H         1 MOL         0.0436
     16 H6         -1.6674   -1.8529   -0.9059 H         1 MOL         0.0436
     17 H7          1.8478    2.7318   -0.8549 H         1 MOL         0.0436
     18 H8          0.1784    2.6245   -0.2150 H         1 MOL         0.0436
     19 H9          0.5695    1.9435   -1.8161 H         1 MOL         0.0436
     20 H10         1.3631   -1.0565    1.3777 H         1 MOL         0.0942
     21 H11        -0.1553   -1.8717    1.0487 H         1 MOL         0.0942
@<TRIPOS>BOND
     1    1    5 1
     2    1    7 3
     3    2    8 1
     4    3    9 1
     5    4   10 1
     6    5    6 1
     7    6    8 1
     8    6    9 1
     9    6   10 1
    10    2   11 1
    11    2   12 1
    12    2   13 1
    13    3   14 1
    14    3   15 1
    15    3   16 1
    16    4   17 1
    17    4   18 1
    18    4   19 1
    19    5   20 1
    20    5   21 1
