@<TRIPOS>MOLECULE
(2,2-dimethyl-3H-benzofuran-7-yl) N-methylcarbamate
   31    32     0     0     0
SMALL
USER_CHARGES

@<TRIPOS>ATOM
      1 C1          0.1674   -1.9365    0.9400 C.ar      1 MOL        -0.1514
      2 C2          0.8323   -3.1650    0.9679 C.ar      1 MOL        -0.0856
      3 C3          0.5301   -0.9485    0.0103 C.ar      1 MOL        -0.1063
      4 C4          1.8586   -3.3747    0.0643 C.ar      1 MOL        -0.1495
      5 C5          2.2115   -2.3956   -0.8487 C.ar      1 MOL         0.1314
      6 C6          1.5628   -1.1767   -0.9007 C.ar      1 MOL         0.0896
      7 C7          2.9097    0.6732   -1.3660 C.2       1 MOL         0.7380
      8 C8          2.6864   -4.5830   -0.1501 C.3       1 MOL        -0.0510
      9 C9          3.7316   -4.0214   -1.1421 C.3       1 MOL         0.1422
     10 C10         5.0724   -3.7412   -0.4515 C.3       1 MOL        -0.0997
     11 C11         3.9419   -4.9731   -2.3209 C.3       1 MOL        -0.0997
     12 C12         4.1802    2.6489   -2.1882 C.3       1 MOL         0.0950
     13 N1          3.1993    1.6004   -2.3458 N.am      1 MOL        -0.5619
     14 O1          3.4325    0.6188   -0.2568 O.2       1 MOL        -0.5605
     15 O2          3.2389   -2.7594   -1.6786 O.3       1 MOL        -0.3039
     16 O3          1.9138   -0.2255   -1.8015 O.3       1 MOL        -0.3533
     17 H1         -0.6411   -1.7443    1.6404 H         1 MOL         0.1358
     18 H2          0.5445   -3.9318    1.6790 H         1 MOL         0.1375
     19 H3         -0.0032   -0.0012    0.0046 H         1 MOL         0.1442
     20 H4          3.1382   -4.9539    0.7748 H         1 MOL         0.0683
     21 H5          2.0749   -5.3743   -0.5971 H         1 MOL         0.0683
     22 H6          5.7791   -3.3492   -1.1776 H         1 MOL         0.0501
     23 H7          5.4619   -4.6632   -0.0288 H         1 MOL         0.0501
     24 H8          4.9263   -3.0128    0.3414 H         1 MOL         0.0501
     25 H9          4.6802   -4.5557   -3.0025 H         1 MOL         0.0501
     26 H10         3.0025   -5.1127   -2.8520 H         1 MOL         0.0501
     27 H11         4.2943   -5.9361   -1.9568 H         1 MOL         0.0501
     28 H12         3.7099    3.5439   -1.7727 H         1 MOL         0.0468
     29 H13         4.6229    2.9008   -3.1557 H         1 MOL         0.0468
     30 H14         4.9759    2.3236   -1.5127 H         1 MOL         0.0468
     31 H15         2.6955    1.5425   -3.2255 H         1 MOL         0.3316
@<TRIPOS>BOND
     1    1    2 ar
     2    1    3 ar
     3    2    4 ar
     4    3    6 ar
     5    4    5 ar
     6    4    8 1
     7    5    6 ar
     8    5   15 1
     9    6   16 1
    10    7   13 am
    11    7   14 2
    12    7   16 1
    13    8    9 1
    14    9   10 1
    15    9   11 1
    16    9   15 1
    17   12   13 1
    18    1   17 1
    19    2   18 1
    20    3   19 1
    21    8   20 1
    22    8   21 1
    23   10   22 1
    24   10   23 1
    25   10   24 1
    26   11   25 1
    27   11   26 1
    28   11   27 1
    29   12   28 1
    30   12   29 1
    31   12   30 1
    32   13   31 1
