@<TRIPOS>MOLECULE
ethyl benzoate
   21    21     0     0     0
SMALL
USER_CHARGES

@<TRIPOS>ATOM
      1 C1          1.8851   -1.0363   -0.1124 C.ar      1 MOL        -0.1115
      2 C2          0.8066   -0.4630    0.5610 C.ar      1 MOL        -0.1326
      3 C3          2.9210   -1.6309    0.6081 C.ar      1 MOL        -0.1326
      4 C4          0.7638   -0.4841    1.9551 C.ar      1 MOL        -0.0891
      5 C5          2.8783   -1.6520    2.0022 C.ar      1 MOL        -0.0891
      6 C6          1.7997   -1.0786    2.6757 C.ar      1 MOL        -0.1088
      7 C7          1.7551   -1.1006    4.1291 C.2       1 MOL         0.6452
      8 C8          4.1992   -2.5284    6.4716 C.3       1 MOL        -0.1003
      9 C9          2.9237   -1.8109    6.0841 C.3       1 MOL         0.1369
     10 O1          0.8400   -0.6175    4.8090 O.2       1 MOL        -0.5300
     11 O2          2.8526   -1.7244    4.6569 O.3       1 MOL        -0.4346
     12 H1          1.9184   -1.0198   -1.1978 H         1 MOL         0.1353
     13 H2          0.0002    0.0000   -0.0002 H         1 MOL         0.1385
     14 H3          3.7607   -2.0775    0.0838 H         1 MOL         0.1385
     15 H4         -0.0814   -0.0344    2.4697 H         1 MOL         0.1435
     16 H5          3.6911   -2.1179    2.5534 H         1 MOL         0.1435
     17 H6          4.2180   -3.5410    6.0593 H         1 MOL         0.0484
     18 H7          5.0754   -1.9820    6.1074 H         1 MOL         0.0484
     19 H8          4.2921   -2.5888    7.5611 H         1 MOL         0.0484
     20 H9          2.9113   -0.7989    6.4996 H         1 MOL         0.0509
     21 H10         2.0493   -2.3586    6.4481 H         1 MOL         0.0509
@<TRIPOS>BOND
     1    1    2 ar
     2    1    3 ar
     3    2    4 ar
     4    3    5 ar
     5    4    6 ar
     6    5    6 ar
     7    6    7 1
     8    7   10 2
     9    7   11 1
    10    8    9 1
    11    9   11 1
    12    1   12 1
    13    2   13 1
    14    3   14 1
    15    4   15 1
    16    5   16 1
    17    8   17 1
    18    8   18 1
    19    8   19 1
    20    9   20 1
    21    9   21 1
