@<TRIPOS>MOLECULE
[(E)-2-chloro-1-(2,4-dichlorophenyl)vinyl] diethyl phosphate
   34    34     0     0     0
SMALL
USER_CHARGES

@<TRIPOS>ATOM
      1 C1         -3.5997   -0.6077    2.0732 C.ar      1 MOL        -0.0755
      2 C2         -4.6833   -0.5038    2.9452 C.ar      1 MOL        -0.1316
      3 C3         -6.2042   -0.7726    1.0874 C.ar      1 MOL        -0.1306
      4 C4         -3.8183   -0.7940    0.7082 C.ar      1 MOL        -0.0507
      5 C5         -5.9856   -0.5863    2.4524 C.ar      1 MOL         0.0378
      6 C6         -5.1206   -0.8765    0.2153 C.ar      1 MOL         0.0562
      7 C7         -2.0752    0.1749   -0.7506 C.2       1 MOL        -0.1712
      8 C8         -2.6371   -0.8942   -0.1704 C.2       1 MOL         0.1926
      9 C9         -1.8218   -6.2934   -1.6447 C.3       1 MOL        -0.0967
     10 C10        -1.1198   -1.6493   -5.0991 C.3       1 MOL        -0.0967
     11 C11        -2.0668   -4.8006   -1.7006 C.3       1 MOL         0.1642
     12 C12        -0.4271   -2.0196   -3.8050 C.3       1 MOL         0.1642
     13 O1          0.3930   -1.8643   -0.8523 O.2       1 MOL        -0.8073
     14 O2         -2.1790   -2.1545   -0.3585 O.3       1 MOL        -0.4379
     15 O3         -0.8863   -4.1240   -1.3052 O.3       1 MOL        -0.5624
     16 O4         -1.3951   -2.1162   -2.7746 O.3       1 MOL        -0.5624
     17 P1         -0.8963   -2.5040   -1.2826 P.3       1 MOL         1.6044
     18 Cl1        -7.3218   -0.4592    3.5295 Cl        1 MOL        -0.0794
     19 Cl2        -5.4471   -1.1059   -1.4674 Cl        1 MOL        -0.0649
     20 Cl3        -2.6489    1.7794   -0.5500 Cl        1 MOL        -0.0637
     21 H1         -2.5918   -0.5405    2.4761 H         1 MOL         0.1514
     22 H2         -4.4973   -0.3590    4.0064 H         1 MOL         0.1549
     23 H3         -7.2207   -0.8368    0.7046 H         1 MOL         0.1646
     24 H4         -1.2042    0.1438   -1.3922 H         1 MOL         0.1709
     25 H5         -1.0116   -6.5815   -2.3203 H         1 MOL         0.0513
     26 H6         -1.5613   -6.6040   -0.6276 H         1 MOL         0.0513
     27 H7         -2.7267   -6.8436   -1.9235 H         1 MOL         0.0513
     28 H8         -1.8540   -2.4096   -5.3801 H         1 MOL         0.0513
     29 H9         -1.6291   -0.6849   -5.0021 H         1 MOL         0.0513
     30 H10        -0.3916   -1.5446   -5.9102 H         1 MOL         0.0513
     31 H11        -2.8782   -4.5192   -1.0228 H         1 MOL         0.0405
     32 H12        -2.3262   -4.4918   -2.7177 H         1 MOL         0.0405
     33 H13         0.3057   -1.2553   -3.5296 H         1 MOL         0.0405
     34 H14         0.0804   -2.9839   -3.9034 H         1 MOL         0.0405
@<TRIPOS>BOND
     1    1    2 ar
     2    1    4 ar
     3    2    5 ar
     4    3    5 ar
     5    3    6 ar
     6    4    6 ar
     7    4    8 1
     8    5   18 1
     9    6   19 1
    10    7    8 2
    11    7   20 1
    12    8   14 1
    13    9   11 1
    14   10   12 1
    15   11   15 1
    16   12   16 1
    17   13   17 2
    18   14   17 1
    19   15   17 1
    20   16   17 1
    21    1   21 1
    22    2   22 1
    23    3   23 1
    24    7   24 1
    25    9   25 1
    26    9   26 1
    27    9   27 1
    28   10   28 1
    29   10   29 1
    30   10   30 1
    31   11   31 1
    32   11   32 1
    33   12   33 1
    34   12   34 1
