@<TRIPOS>MOLECULE
(2R,5R)-5-isopropenyl-2-methyl-cyclohexanone
   27    27     0     0     0
SMALL
USER_CHARGES

@<TRIPOS>ATOM
      1 C1          0.9081    0.7077   -0.0006 C.2       1 MOL         0.5703
      2 C2         -0.8140   -2.2037    2.8843 C.2       1 MOL        -0.2276
      3 C3         -1.3904   -1.0547    2.5015 C.2       1 MOL        -0.1073
      4 C4          0.4851    0.0696    1.3061 C.3       1 MOL        -0.1792
      5 C5         -0.8623   -0.5069   -1.2705 C.3       1 MOL        -0.0722
      6 C6         -1.2616   -1.2247    0.0196 C.3       1 MOL        -0.0810
      7 C7          0.6128   -0.0968   -1.2618 C.3       1 MOL        -0.1637
      8 C8         -0.9858   -0.3457    1.2464 C.3       1 MOL        -0.0187
      9 C9         -2.4769   -0.4059    3.3068 C.3       1 MOL        -0.0658
     10 C10         0.9642    0.6826   -2.5250 C.3       1 MOL        -0.0856
     11 O1          1.5300    1.7689   -0.0156 O.2       1 MOL        -0.5294
     12 H1         -1.1144   -2.7098    3.7956 H         1 MOL         0.1138
     13 H2         -0.0285   -2.6651    2.2950 H         1 MOL         0.1138
     14 H3          1.1423   -0.7888    1.4894 H         1 MOL         0.0714
     15 H4          0.6454    0.7918    2.1154 H         1 MOL         0.0714
     16 H5         -1.0606   -1.1654   -2.1246 H         1 MOL         0.0494
     17 H6         -1.4980    0.3794   -1.3956 H         1 MOL         0.0494
     18 H7         -2.3274   -1.4809   -0.0308 H         1 MOL         0.0483
     19 H8         -0.7113   -2.1717    0.0962 H         1 MOL         0.0483
     20 H9          1.2436   -0.9937   -1.2210 H         1 MOL         0.0694
     21 H10        -1.6024    0.5588    1.1634 H         1 MOL         0.0639
     22 H11        -2.0464    0.2875    4.0366 H         1 MOL         0.0437
     23 H12        -3.1523    0.1538    2.6516 H         1 MOL         0.0437
     24 H13        -3.0770   -1.1388    3.8566 H         1 MOL         0.0437
     25 H14         0.3504    1.5804   -2.5900 H         1 MOL         0.0434
     26 H15         0.7840    0.0650   -3.4043 H         1 MOL         0.0434
     27 H16         2.0145    0.9713   -2.5029 H         1 MOL         0.0434
@<TRIPOS>BOND
     1    1    4 1
     2    1    7 1
     3    1   11 2
     4    2    3 2
     5    3    8 1
     6    3    9 1
     7    4    8 1
     8    5    6 1
     9    5    7 1
    10    6    8 1
    11    7   10 1
    12    2   12 1
    13    2   13 1
    14    4   14 1
    15    4   15 1
    16    5   16 1
    17    5   17 1
    18    6   18 1
    19    6   19 1
    20    7   20 1
    21    8   21 1
    22    9   22 1
    23    9   23 1
    24    9   24 1
    25   10   25 1
    26   10   26 1
    27   10   27 1
