@<TRIPOS>MOLECULE
propylcyclopentane
   24    24     0     0     0
SMALL
USER_CHARGES

@<TRIPOS>ATOM
      1 C1         -0.3396    0.4881   -0.9209 C.3       1 MOL        -0.0804
      2 C2         -1.6799   -0.1059   -1.3575 C.3       1 MOL        -0.0804
      3 C3          0.6372    0.2135   -2.0602 C.3       1 MOL        -0.0771
      4 C4         -1.4494   -0.6928   -2.7462 C.3       1 MOL        -0.0771
      5 C5          0.0448   -0.9981   -2.7731 C.3       1 MOL        -0.0698
      6 C6          0.5267   -2.6170   -6.2556 C.3       1 MOL        -0.0922
      7 C7          0.5910   -1.1933   -4.1767 C.3       1 MOL        -0.0701
      8 C8          0.0017   -2.4371   -4.8401 C.3       1 MOL        -0.0813
      9 H1         -0.4177    1.5603   -0.7140 H         1 MOL         0.0396
     10 H2          0.0001    0.0002    0.0001 H         1 MOL         0.0396
     11 H3         -1.9816   -0.8924   -0.6562 H         1 MOL         0.0396
     12 H4         -2.4752    0.6460   -1.3688 H         1 MOL         0.0396
     13 H5          0.6759    1.0810   -2.7306 H         1 MOL         0.0418
     14 H6          1.6518    0.0271   -1.6944 H         1 MOL         0.0418
     15 H7         -2.0608   -1.5833   -2.9215 H         1 MOL         0.0418
     16 H8         -1.7106    0.0501   -3.5100 H         1 MOL         0.0418
     17 H9          0.2424   -1.9013   -2.1809 H         1 MOL         0.0466
     18 H10         0.2955   -1.7436   -6.8736 H         1 MOL         0.0323
     19 H11         0.0675   -3.4945   -6.7216 H         1 MOL         0.0323
     20 H12         1.6119   -2.7609   -6.2562 H         1 MOL         0.0323
     21 H13         0.3620   -0.3066   -4.7802 H         1 MOL         0.0410
     22 H14         1.6835   -1.2792   -4.1306 H         1 MOL         0.0410
     23 H15         0.2491   -3.3268   -4.2491 H         1 MOL         0.0388
     24 H16        -1.0916   -2.3609   -4.8689 H         1 MOL         0.0388
@<TRIPOS>BOND
     1    1    2 1
     2    1    3 1
     3    2    4 1
     4    3    5 1
     5    4    5 1
     6    5    7 1
     7    6    8 1
     8    7    8 1
     9    1    9 1
    10    1   10 1
    11    2   11 1
    12    2   12 1
    13    3   13 1
    14    3   14 1
    15    4   15 1
    16    4   16 1
    17    5   17 1
    18    6   18 1
    19    6   19 1
    20    6   20 1
    21    7   21 1
    22    7   22 1
    23    8   23 1
    24    8   24 1
