@<TRIPOS>MOLECULE
diethyl (2R)-2-dimethoxyphosphinothioylsulfanylbutanedioate
   38    37     0     0     0
SMALL
USER_CHARGES

@<TRIPOS>ATOM
      1 C1         -2.9947   -0.0706   -4.9234 C.2       1 MOL         0.6291
      2 C2         -5.9462   -1.6597   -3.0597 C.2       1 MOL         0.6496
      3 C3         -1.6971   -2.3891   -7.4440 C.3       1 MOL        -0.1010
      4 C4         -7.7237   -4.7978   -3.7089 C.3       1 MOL        -0.1015
      5 C5         -5.6191   -3.3699    0.1914 C.3       1 MOL         0.1098
      6 C6         -1.4426   -3.7568   -2.8056 C.3       1 MOL         0.1098
      7 C7         -4.3357   -0.1510   -4.2240 C.3       1 MOL        -0.1406
      8 C8         -1.6689   -1.1715   -6.5449 C.3       1 MOL         0.1402
      9 C9         -7.5768   -3.3693   -3.2300 C.3       1 MOL         0.1401
     10 C10        -4.4781   -1.3786   -3.3208 C.3       1 MOL         0.0993
     11 O1         -2.1636    0.8114   -4.7571 O.2       1 MOL        -0.5247
     12 O2         -6.7434   -0.8799   -2.5552 O.2       1 MOL        -0.4986
     13 O3         -2.8806   -1.1251   -5.7849 O.3       1 MOL        -0.4448
     14 O4         -6.2286   -2.9410   -3.4475 O.3       1 MOL        -0.4344
     15 O5         -4.7240   -3.8113   -0.8159 O.3       1 MOL        -0.4690
     16 O6         -2.7252   -3.9964   -2.2502 O.3       1 MOL        -0.4690
     17 P1         -3.2648   -3.0956   -0.9967 P.3       1 MOL         0.8171
     18 S1         -2.1351   -3.2979    0.5949 S.2       1 MOL        -0.4513
     19 S2         -3.6114   -1.1356   -1.7318 S.3       1 MOL        -0.3626
     20 H1         -1.7751   -3.3073   -6.8551 H         1 MOL         0.0493
     21 H2         -2.5451   -2.3391   -8.1350 H         1 MOL         0.0493
     22 H3         -0.7904   -2.4379   -8.0560 H         1 MOL         0.0493
     23 H4         -7.5007   -4.8763   -4.7766 H         1 MOL         0.0514
     24 H5         -7.0496   -5.4612   -3.1572 H         1 MOL         0.0514
     25 H6         -8.7418   -5.1609   -3.5332 H         1 MOL         0.0514
     26 H7         -6.5338   -3.9665    0.1540 H         1 MOL         0.0727
     27 H8         -5.8534   -2.3140    0.0347 H         1 MOL         0.0727
     28 H9         -5.1450   -3.4949    1.1678 H         1 MOL         0.0727
     29 H10        -1.2645   -4.4548   -3.6274 H         1 MOL         0.0727
     30 H11        -0.6803   -3.8848   -2.0330 H         1 MOL         0.0727
     31 H12        -1.4053   -2.7331   -3.1855 H         1 MOL         0.0727
     32 H13        -5.1360   -0.1312   -4.9745 H         1 MOL         0.1103
     33 H14        -4.4273    0.7644   -3.6257 H         1 MOL         0.1103
     34 H15        -1.5909   -0.2568   -7.1400 H         1 MOL         0.0526
     35 H16        -0.8216   -1.2234   -5.8547 H         1 MOL         0.0526
     36 H17        -7.8013   -3.2977   -2.1616 H         1 MOL         0.0524
     37 H18        -8.2504   -2.7077   -3.7828 H         1 MOL         0.0524
     38 H19        -4.0360   -2.2705   -3.7792 H         1 MOL         0.1337
@<TRIPOS>BOND
     1    1    7 1
     2    1   11 2
     3    1   13 1
     4    2   10 1
     5    2   12 2
     6    2   14 1
     7    3    8 1
     8    4    9 1
     9    5   15 1
    10    6   16 1
    11    7   10 1
    12    8   13 1
    13    9   14 1
    14   10   19 1
    15   15   17 1
    16   16   17 1
    17   17   18 2
    18   17   19 1
    19    3   20 1
    20    3   21 1
    21    3   22 1
    22    4   23 1
    23    4   24 1
    24    4   25 1
    25    5   26 1
    26    5   27 1
    27    5   28 1
    28    6   29 1
    29    6   30 1
    30    6   31 1
    31    7   32 1
    32    7   33 1
    33    8   34 1
    34    8   35 1
    35    9   36 1
    36    9   37 1
    37   10   38 1
