@<TRIPOS>MOLECULE
3-nitroaniline
   16    16     0     0     0
SMALL
USER_CHARGES

@<TRIPOS>ATOM
      1 C1          1.8851   -1.0363   -0.1124 C.ar      1 MOL        -0.0992
      2 C2          0.8066   -0.4630    0.5610 C.ar      1 MOL        -0.1579
      3 C3          2.9210   -1.6309    0.6081 C.ar      1 MOL        -0.1155
      4 C4          1.7997   -1.0786    2.6757 C.ar      1 MOL        -0.1454
      5 C5          0.7638   -0.4841    1.9551 C.ar      1 MOL         0.1464
      6 C6          2.8783   -1.6520    2.0022 C.ar      1 MOL        -0.1316
      7 N1         -0.3266    0.0962    2.6359 N.pl3     1 MOL        -0.8242
      8 N2          3.9328   -2.2585    2.7350 N.pl3     1 MOL         0.3090
      9 O1          4.8928   -2.7691    2.1088 O.3       1 MOL        -0.2086
     10 O2          3.8756   -2.2669    3.9883 O.2       1 MOL        -0.2086
     11 H1          1.9184   -1.0198   -1.1978 H         1 MOL         0.1473
     12 H2          0.0048   -0.0022   -0.0107 H         1 MOL         0.1420
     13 H3          3.7558   -2.0748    0.0711 H         1 MOL         0.1706
     14 H4          1.7645   -1.0939    3.7632 H         1 MOL         0.1702
     15 H5         -1.0388    0.5608    2.1099 H         1 MOL         0.4027
     16 H6         -0.3223    0.1162    3.6357 H         1 MOL         0.4027
@<TRIPOS>BOND
     1    1    2 ar
     2    1    3 ar
     3    2    5 ar
     4    3    6 ar
     5    4    5 ar
     6    4    6 ar
     7    5    7 1
     8    6    8 1
     9    8    9 1
    10    8   10 2
    11    1   11 1
    12    2   12 1
    13    3   13 1
    14    4   14 1
    15    7   15 1
    16    7   16 1
