@<TRIPOS>MOLECULE
(2R)-2-methylbutan-1-ol
   18    17     0     0     0
SMALL
USER_CHARGES

@<TRIPOS>ATOM
      1 C1          1.3010    1.7684    2.0486 C.3       1 MOL        -0.0914
      2 C2          3.4203    2.0803   -1.1965 C.3       1 MOL        -0.0897
      3 C3          2.4492    2.1207    1.1138 C.3       1 MOL        -0.0760
      4 C4          2.1012    0.0841   -0.4120 C.3       1 MOL         0.1326
      5 C5          2.2498    1.6090   -0.3259 C.3       1 MOL        -0.0616
      6 O1          3.2765   -0.5652    0.0520 O.3       1 MOL        -0.5992
      7 H1          0.3524    2.1801    1.6925 H         1 MOL         0.0319
      8 H2          1.1944    0.6838    2.1496 H         1 MOL         0.0319
      9 H3          1.4874    2.1842    3.0442 H         1 MOL         0.0319
     10 H4          4.3733    1.6680   -0.8485 H         1 MOL         0.0378
     11 H5          3.4981    3.1724   -1.1848 H         1 MOL         0.0378
     12 H6          3.2787    1.7693   -2.2370 H         1 MOL         0.0378
     13 H7          3.3680    1.6818    1.5231 H         1 MOL         0.0469
     14 H8          2.5950    3.2075    1.1183 H         1 MOL         0.0469
     15 H9          1.9120   -0.2340   -1.4419 H         1 MOL         0.0204
     16 H10         1.2577   -0.2525    0.2007 H         1 MOL         0.0204
     17 H11         1.3337    2.0583   -0.7308 H         1 MOL         0.0450
     18 H12         3.1197   -1.5202   -0.0277 H         1 MOL         0.3969
@<TRIPOS>BOND
     1    1    3 1
     2    2    5 1
     3    3    5 1
     4    4    5 1
     5    4    6 1
     6    1    7 1
     7    1    8 1
     8    1    9 1
     9    2   10 1
    10    2   11 1
    11    2   12 1
    12    3   13 1
    13    3   14 1
    14    4   15 1
    15    4   16 1
    16    5   17 1
    17    6   18 1
