@<TRIPOS>MOLECULE
2-methylpyridine
   14    14     0     0     0
SMALL
USER_CHARGES

@<TRIPOS>ATOM
      1 C1          1.3879   -0.0684    1.6522 C.ar      1 MOL        -0.0908
      2 C2          0.2265   -0.4197    0.9733 C.ar      1 MOL        -0.2537
      3 C3          1.6520   -0.6227    2.8997 C.ar      1 MOL        -0.2499
      4 C4         -0.6317   -1.3224    1.5803 C.ar      1 MOL         0.3997
      5 C5          0.7299   -1.5161    3.4206 C.ar      1 MOL         0.4126
      6 C6          0.9810   -2.1301    4.7574 C.3       1 MOL        -0.1502
      7 N1         -0.4092   -1.8816    2.7908 N.ar      1 MOL        -0.6684
      8 H1          2.0859    0.6359    1.2097 H         1 MOL         0.1364
      9 H2          0.0002   -0.0003   -0.0003 H         1 MOL         0.1427
     10 H3          2.5545   -0.3569    3.4396 H         1 MOL         0.1410
     11 H4         -1.5509   -1.6291    1.0922 H         1 MOL         0.0204
     12 H5          0.5463   -1.5091    5.5497 H         1 MOL         0.0534
     13 H6          0.5436   -3.1345    4.8221 H         1 MOL         0.0534
     14 H7          2.0562   -2.2383    4.9495 H         1 MOL         0.0534
@<TRIPOS>BOND
     1    1    2 ar
     2    1    3 ar
     3    2    4 ar
     4    3    5 ar
     5    4    7 ar
     6    5    6 1
     7    5    7 ar
     8    1    8 1
     9    2    9 1
    10    3   10 1
    11    4   11 1
    12    6   12 1
    13    6   13 1
    14    6   14 1
