@<TRIPOS>MOLECULE
9H-fluorene
   23    25     0     0     0
SMALL
USER_CHARGES

@<TRIPOS>ATOM
      1 C1         -4.9953   -2.6694    3.7012 C.ar      1 MOL        -0.1330
      2 C2         -0.3400   -0.9756    0.3377 C.ar      1 MOL        -0.1330
      3 C3         -4.9623   -4.0685    3.8307 C.ar      1 MOL        -0.1262
      4 C4          0.3814   -2.1243   -0.0305 C.ar      1 MOL        -0.1262
      5 C5         -4.0207   -1.9924    2.9616 C.ar      1 MOL        -0.1035
      6 C6         -1.4873   -1.0707    1.1313 C.ar      1 MOL        -0.1035
      7 C7         -3.9541   -4.8192    3.2231 C.ar      1 MOL        -0.1179
      8 C8         -0.0296   -3.3912    0.3874 C.ar      1 MOL        -0.1179
      9 C9         -3.0204   -2.7368    2.3589 C.ar      1 MOL        -0.0418
     10 C10        -1.8953   -2.3274    1.5461 C.ar      1 MOL        -0.0418
     11 C11        -2.9927   -4.1432    2.4926 C.ar      1 MOL        -0.0845
     12 C12        -1.1657   -3.4785    1.1727 C.ar      1 MOL        -0.0845
     13 C13        -1.8090   -4.7234    1.7471 C.3       1 MOL         0.0053
     14 H1         -5.7900   -2.1067    4.1841 H         1 MOL         0.1302
     15 H2         -0.0002   -0.0000   -0.0000 H         1 MOL         0.1302
     16 H3         -5.7317   -4.5705    4.4113 H         1 MOL         0.1308
     17 H4          1.2701   -2.0229   -0.6477 H         1 MOL         0.1308
     18 H5         -4.0588   -0.9119    2.8720 H         1 MOL         0.1360
     19 H6         -2.0333   -0.1748    1.4077 H         1 MOL         0.1360
     20 H7         -3.9295   -5.8986    3.3243 H         1 MOL         0.1339
     21 H8          0.5284   -4.2765    0.1031 H         1 MOL         0.1339
     22 H9         -1.1268   -5.2289    2.4367 H         1 MOL         0.0733
     23 H10        -2.1436   -5.3909    0.9478 H         1 MOL         0.0733
@<TRIPOS>BOND
     1    1    3 ar
     2    1    5 ar
     3    2    4 ar
     4    2    6 ar
     5    3    7 ar
     6    4    8 ar
     7    5    9 ar
     8    6   10 ar
     9    7   11 ar
    10    8   12 ar
    11    9   10 1
    12    9   11 ar
    13   10   12 ar
    14   11   13 1
    15   12   13 1
    16    1   14 1
    17    2   15 1
    18    3   16 1
    19    4   17 1
    20    5   18 1
    21    6   19 1
    22    7   20 1
    23    8   21 1
    24   13   22 1
    25   13   23 1
