@<TRIPOS>MOLECULE
(3S)-hexan-3-ol
   21    20     0     0     0
SMALL
USER_CHARGES

@<TRIPOS>ATOM
      1 C1          0.9074   -0.3381    0.3511 C.3       1 MOL        -0.0918
      2 C2         -0.8002   -1.8023    5.3370 C.3       1 MOL        -0.0903
      3 C3          1.2136    0.1404    1.7619 C.3       1 MOL        -0.0786
      4 C4         -0.6283   -0.2989    5.1946 C.3       1 MOL        -0.1149
      5 C5          0.1532   -0.3405    2.7584 C.3       1 MOL        -0.0703
      6 C6          0.4585    0.1093    4.1927 C.3       1 MOL         0.1414
      7 O1          0.5622    1.5341    4.2072 O.3       1 MOL        -0.6020
      8 H1         -0.0735    0.0178    0.0200 H         1 MOL         0.0316
      9 H2          1.6609    0.0212   -0.3570 H         1 MOL         0.0316
     10 H3          0.9014   -1.4320    0.3151 H         1 MOL         0.0316
     11 H4         -1.0482   -2.2623    4.3753 H         1 MOL         0.0360
     12 H5          0.1299   -2.2534    5.6977 H         1 MOL         0.0360
     13 H6         -1.5865   -2.0517    6.0549 H         1 MOL         0.0360
     14 H7          2.1999   -0.2327    2.0613 H         1 MOL         0.0475
     15 H8          1.2663    1.2350    1.7608 H         1 MOL         0.0475
     16 H9         -0.3813    0.1218    6.1778 H         1 MOL         0.0446
     17 H10        -1.5853    0.1582    4.9135 H         1 MOL         0.0446
     18 H11        -0.8215    0.0582    2.4499 H         1 MOL         0.0465
     19 H12         0.0934   -1.4332    2.7108 H         1 MOL         0.0465
     20 H13         1.4274   -0.2956    4.5080 H         1 MOL         0.0304
     21 H14         0.8006    1.7811    5.1132 H         1 MOL         0.3961
@<TRIPOS>BOND
     1    1    3 1
     2    2    4 1
     3    3    5 1
     4    4    6 1
     5    5    6 1
     6    6    7 1
     7    1    8 1
     8    1    9 1
     9    1   10 1
    10    2   11 1
    11    2   12 1
    12    2   13 1
    13    3   14 1
    14    3   15 1
    15    4   16 1
    16    4   17 1
    17    5   18 1
    18    5   19 1
    19    6   20 1
    20    7   21 1
