@<TRIPOS>MOLECULE
(2S,3R,6R,7S)-4,5,6,7,8,8-hexachloro-10,11-dioxa-12$l^{4}-thiatricyclo[BLAH.BLAH.BLAH.BLAH]dodec-4-ene 12-oxide
   25    27     0     0     0
SMALL
USER_CHARGES

@<TRIPOS>ATOM
      1 C1          1.2302   -0.9121   -1.0713 C.2       1 MOL        -0.0390
      2 C2          0.0314   -1.5065   -1.1055 C.2       1 MOL        -0.0390
      3 C3          1.2944    0.6361    1.5385 C.3       1 MOL         0.1623
      4 C4         -1.3592   -0.6789    1.4627 C.3       1 MOL         0.1623
      5 C5          0.3975    0.9619    0.3404 C.3       1 MOL        -0.0984
      6 C6         -1.0210    0.2587    0.2998 C.3       1 MOL        -0.0984
      7 C7          0.9931    0.5859   -1.0638 C.3       1 MOL         0.0778
      8 C8         -1.0174   -0.4110   -1.1212 C.3       1 MOL         0.0778
      9 C9         -0.2626    0.6443   -1.9896 C.3       1 MOL         0.1327
     10 O1         -0.5284    0.7844    4.8811 O.2       1 MOL        -0.4385
     11 O2          0.7125    1.1545    2.7347 O.3       1 MOL        -0.3991
     12 O3         -1.4744    0.0710    2.6721 O.3       1 MOL        -0.3991
     13 S1         -0.1549    0.1049    3.5970 S.o       1 MOL         0.7915
     14 Cl1         2.7561   -1.6428   -1.0087 Cl        1 MOL        -0.0067
     15 Cl2        -0.3123   -3.1643   -1.0960 Cl        1 MOL        -0.0067
     16 Cl3         2.3338    1.5928   -1.5760 Cl        1 MOL        -0.0725
     17 Cl4        -2.6049   -0.8561   -1.7171 Cl        1 MOL        -0.0725
     18 Cl5         0.0418    0.1283   -3.6923 Cl        1 MOL        -0.0854
     19 Cl6        -1.0557    2.2491   -2.0846 Cl        1 MOL        -0.0854
     20 H1          1.5187   -0.4331    1.6318 H         1 MOL         0.0529
     21 H2          2.2577    1.1441    1.4200 H         1 MOL         0.0529
     22 H3         -2.3402   -1.1344    1.2887 H         1 MOL         0.0529
     23 H4         -0.6489   -1.5073    1.5700 H         1 MOL         0.0529
     24 H5          0.2105    2.0447    0.3813 H         1 MOL         0.1123
     25 H6         -1.7710    1.0624    0.3244 H         1 MOL         0.1123
@<TRIPOS>BOND
     1    1    2 2
     2    1    7 1
     3    1   14 1
     4    2    8 1
     5    2   15 1
     6    3    5 1
     7    3   11 1
     8    4    6 1
     9    4   12 1
    10    5    6 1
    11    5    7 1
    12    6    8 1
    13    7    9 1
    14    7   16 1
    15    8    9 1
    16    8   17 1
    17    9   18 1
    18    9   19 1
    19   10   13 2
    20   11   13 1
    21   12   13 1
    22    3   20 1
    23    3   21 1
    24    4   22 1
    25    4   23 1
    26    5   24 1
    27    6   25 1
