@<TRIPOS>MOLECULE
pent-1-yne
   13    12     0     0     0
SMALL
USER_CHARGES

@<TRIPOS>ATOM
      1 C1          1.9579   -1.9542    1.2108 C.1       1 MOL        -0.1631
      2 C2          0.9842   -1.4120    0.7644 C.1       1 MOL        -0.1382
      3 C3         -1.1353    1.3803   -0.7537 C.3       1 MOL        -0.0946
      4 C4         -0.2097   -0.7519    0.2191 C.3       1 MOL        -0.0033
      5 C5          0.1020    0.6784   -0.2171 C.3       1 MOL        -0.0772
      6 H1          2.8218   -2.4348    1.6066 H         1 MOL         0.1635
      7 H2         -1.9313    1.4013   -0.0025 H         1 MOL         0.0348
      8 H3         -0.8969    2.4135   -1.0250 H         1 MOL         0.0348
      9 H4         -1.5175    0.8744   -1.6461 H         1 MOL         0.0348
     10 H5         -0.5873   -1.3269   -0.6344 H         1 MOL         0.0580
     11 H6         -1.0018   -0.7448    0.9771 H         1 MOL         0.0580
     12 H7          0.8782    0.6746   -0.9923 H         1 MOL         0.0462
     13 H8          0.5026    1.2509    0.6287 H         1 MOL         0.0462
@<TRIPOS>BOND
     1    1    2 3
     2    2    4 1
     3    3    5 1
     4    4    5 1
     5    1    6 1
     6    3    7 1
     7    3    8 1
     8    3    9 1
     9    4   10 1
    10    4   11 1
    11    5   12 1
    12    5   13 1
