@<TRIPOS>MOLECULE
decan-2-one
   31    30     0     0     0
SMALL
USER_CHARGES

@<TRIPOS>ATOM
      1 C1          0.6636   -1.1483    1.6814 C.2       1 MOL         0.5617
      2 C2          0.9959   -0.4530    0.3868 C.3       1 MOL        -0.2020
      3 C3         -4.1309   -8.5706    6.5798 C.3       1 MOL        -0.0921
      4 C4         -0.2780   -2.3353    1.5799 C.3       1 MOL        -0.1783
      5 C5         -3.8502   -7.9281    5.2309 C.3       1 MOL        -0.0796
      6 C6         -0.5314   -2.9989    2.9315 C.3       1 MOL        -0.0740
      7 C7         -2.8781   -6.7557    5.3603 C.3       1 MOL        -0.0783
      8 C8         -1.4511   -4.2125    2.7917 C.3       1 MOL        -0.0767
      9 C9         -2.6247   -6.0911    4.0061 C.3       1 MOL        -0.0774
     10 C10        -1.6781   -4.8972    4.1406 C.3       1 MOL        -0.0777
     11 O1          1.1364   -0.7603    2.7486 O.2       1 MOL        -0.5339
     12 H1          0.2714    0.3439    0.2022 H         1 MOL         0.0632
     13 H2          2.0059   -0.0401    0.4425 H         1 MOL         0.0632
     14 H3          0.9511   -1.1686   -0.4389 H         1 MOL         0.0632
     15 H4         -3.2061   -8.9273    7.0445 H         1 MOL         0.0328
     16 H5         -4.8025   -9.4263    6.4595 H         1 MOL         0.0328
     17 H6         -4.6062   -7.8589    7.2623 H         1 MOL         0.0328
     18 H7         -1.2234   -1.9793    1.1558 H         1 MOL         0.0625
     19 H8          0.1659   -3.0583    0.8865 H         1 MOL         0.0625
     20 H9         -4.7943   -7.5827    4.7937 H         1 MOL         0.0374
     21 H10        -3.4353   -8.6828    4.5526 H         1 MOL         0.0374
     22 H11        -0.9799   -2.2728    3.6209 H         1 MOL         0.0540
     23 H12         0.4231   -3.3078    3.3756 H         1 MOL         0.0540
     24 H13        -1.9284   -7.1103    5.7791 H         1 MOL         0.0396
     25 H14        -3.2847   -6.0170    6.0619 H         1 MOL         0.0396
     26 H15        -2.4146   -3.8968    2.3733 H         1 MOL         0.0369
     27 H16        -1.0109   -4.9278    2.0863 H         1 MOL         0.0369
     28 H17        -2.1954   -6.8239    3.3119 H         1 MOL         0.0381
     29 H18        -3.5773   -5.7580    3.5764 H         1 MOL         0.0381
     30 H19        -0.7171   -5.2344    4.5477 H         1 MOL         0.0417
     31 H20        -2.0959   -4.1756    4.8532 H         1 MOL         0.0417
@<TRIPOS>BOND
     1    1    2 1
     2    1    4 1
     3    1   11 2
     4    3    5 1
     5    4    6 1
     6    5    7 1
     7    6    8 1
     8    7    9 1
     9    8   10 1
    10    9   10 1
    11    2   12 1
    12    2   13 1
    13    2   14 1
    14    3   15 1
    15    3   16 1
    16    3   17 1
    17    4   18 1
    18    4   19 1
    19    5   20 1
    20    5   21 1
    21    6   22 1
    22    6   23 1
    23    7   24 1
    24    7   25 1
    25    8   26 1
    26    8   27 1
    27    9   28 1
    28    9   29 1
    29   10   30 1
    30   10   31 1
