@<TRIPOS>MOLECULE
(4S)-4-isopropenylcyclohexene-1-carbaldehyde
   25    25     0     0     0
SMALL
USER_CHARGES

@<TRIPOS>ATOM
      1 C1          2.5537   -0.4608   -0.5445 C.2       1 MOL        -0.1002
      2 C2          1.6548   -0.1446   -1.4874 C.2       1 MOL        -0.2139
      3 C3          6.7977   -0.0324   -2.9054 C.2       1 MOL        -0.2226
      4 C4          0.2721    0.0838   -1.0609 C.2       1 MOL         0.5615
      5 C5          5.7457   -0.8209   -2.6399 C.2       1 MOL        -0.1094
      6 C6          4.0025   -0.7091   -0.8571 C.3       1 MOL        -0.0554
      7 C7          1.9790   -0.0349   -2.9459 C.3       1 MOL        -0.0353
      8 C8          3.3361   -0.6546   -3.2969 C.3       1 MOL        -0.0723
      9 C9          4.4076   -0.2585   -2.2718 C.3       1 MOL        -0.0285
     10 C10         5.8423   -2.3168   -2.6940 C.3       1 MOL        -0.0649
     11 O1         -0.6200    0.3782   -1.8467 O.2       1 MOL        -0.5274
     12 H1          2.2598   -0.5519    0.4979 H         1 MOL         0.1260
     13 H2          7.7632   -0.4497   -3.1711 H         1 MOL         0.1135
     14 H3          6.7179    1.0488   -2.8632 H         1 MOL         0.1135
     15 H4          0.0916   -0.0275    0.0212 H         1 MOL        -0.0093
     16 H5          4.6185   -0.1779   -0.1208 H         1 MOL         0.0597
     17 H6          4.1990   -1.7804   -0.7197 H         1 MOL         0.0597
     18 H7          1.2035   -0.5254   -3.5460 H         1 MOL         0.0627
     19 H8          1.9804    1.0259   -3.2254 H         1 MOL         0.0627
     20 H9          3.2380   -1.7486   -3.3299 H         1 MOL         0.0481
     21 H10         3.6256   -0.3356   -4.3059 H         1 MOL         0.0481
     22 H11         4.5008    0.8352   -2.2755 H         1 MOL         0.0551
     23 H12         6.1313   -2.7144   -1.7157 H         1 MOL         0.0428
     24 H13         4.8764   -2.7496   -2.9739 H         1 MOL         0.0428
     25 H14         6.5843   -2.6564   -3.4245 H         1 MOL         0.0428
@<TRIPOS>BOND
     1    1    2 2
     2    1    6 1
     3    2    4 1
     4    2    7 1
     5    3    5 2
     6    4   11 2
     7    5    9 1
     8    5   10 1
     9    6    9 1
    10    7    8 1
    11    8    9 1
    12    1   12 1
    13    3   13 1
    14    3   14 1
    15    4   15 1
    16    6   16 1
    17    6   17 1
    18    7   18 1
    19    7   19 1
    20    8   20 1
    21    8   21 1
    22    9   22 1
    23   10   23 1
    24   10   24 1
    25   10   25 1
