@<TRIPOS>MOLECULE
3-hydroxybenzaldehyde
   15    15     0     0     0
SMALL
USER_CHARGES

@<TRIPOS>ATOM
      1 C1          1.8851   -1.0363   -0.1124 C.ar      1 MOL        -0.1063
      2 C2          0.8066   -0.4630    0.5610 C.ar      1 MOL        -0.1068
      3 C3          2.9210   -1.6309    0.6081 C.ar      1 MOL        -0.1843
      4 C4          1.7997   -1.0786    2.6757 C.ar      1 MOL        -0.1163
      5 C5          0.7638   -0.4841    1.9551 C.ar      1 MOL        -0.1642
      6 C6          2.8783   -1.6520    2.0022 C.ar      1 MOL         0.1104
      7 C7         -0.3608    0.1133    2.6578 C.2       1 MOL         0.5751
      8 O1         -1.3068    0.6540    2.0785 O.2       1 MOL        -0.5240
      9 O2          3.8888   -2.2321    2.7055 O.3       1 MOL        -0.4958
     10 H1          1.9183   -1.0198   -1.1978 H         1 MOL         0.1393
     11 H2          0.0042   -0.0033   -0.0101 H         1 MOL         0.1577
     12 H3          3.7585   -2.0758    0.0778 H         1 MOL         0.1378
     13 H4          1.7710   -1.0984    3.7628 H         1 MOL         0.1530
     14 H5         -0.3500    0.0718    3.7687 H         1 MOL         0.0026
     15 H6          4.5612   -2.5837    2.1004 H         1 MOL         0.4218
@<TRIPOS>BOND
     1    1    2 ar
     2    1    3 ar
     3    2    5 ar
     4    3    6 ar
     5    4    5 ar
     6    4    6 ar
     7    5    7 1
     8    6    9 1
     9    7    8 2
    10    1   10 1
    11    2   11 1
    12    3   12 1
    13    4   13 1
    14    7   14 1
    15    9   15 1
