@<TRIPOS>MOLECULE
2-chloro-1,1,1-trimethoxy-ethane
   20    19     0     0     0
SMALL
USER_CHARGES

@<TRIPOS>ATOM
      1 C1          0.0111    0.9021   -2.2285 C.3       1 MOL         0.1317
      2 C2          0.4636    1.5981    1.7433 C.3       1 MOL         0.1317
      3 C3         -1.7222   -0.9184    1.0088 C.3       1 MOL         0.1317
      4 C4          0.8466   -1.4411   -0.3399 C.3       1 MOL         0.0104
      5 C5          0.2965   -0.0354   -0.0108 C.3       1 MOL         0.5214
      6 O1          0.7431    0.9073   -1.0106 O.3       1 MOL        -0.4424
      7 O2          0.8640    0.3174    1.2722 O.3       1 MOL        -0.4424
      8 O3         -1.1451   -0.0516    0.0426 O.3       1 MOL        -0.4424
      9 Cl1         2.5417   -1.3903   -0.9011 Cl        1 MOL        -0.1447
     10 H1          0.4296    1.6474   -2.9093 H         1 MOL         0.0424
     11 H2         -1.0386    1.1279   -2.0247 H         1 MOL         0.0424
     12 H3          0.0869   -0.0878   -2.6846 H         1 MOL         0.0424
     13 H4          0.9299    1.7929    2.7122 H         1 MOL         0.0424
     14 H5         -0.6248    1.6284    1.8382 H         1 MOL         0.0424
     15 H6          0.7862    2.3572    1.0269 H         1 MOL         0.0424
     16 H7         -2.8115   -0.8479    0.9583 H         1 MOL         0.0424
     17 H8         -1.3740   -0.6373    2.0059 H         1 MOL         0.0424
     18 H9         -1.4154   -1.9448    0.7938 H         1 MOL         0.0424
     19 H10         0.2560   -1.9384   -1.1148 H         1 MOL         0.0819
     20 H11         0.8422   -2.0855    0.5445 H         1 MOL         0.0819
@<TRIPOS>BOND
     1    1    6 1
     2    2    7 1
     3    3    8 1
     4    4    5 1
     5    4    9 1
     6    5    6 1
     7    5    7 1
     8    5    8 1
     9    1   10 1
    10    1   11 1
    11    1   12 1
    12    2   13 1
    13    2   14 1
    14    2   15 1
    15    3   16 1
    16    3   17 1
    17    3   18 1
    18    4   19 1
    19    4   20 1
