@<TRIPOS>MOLECULE
ethylbenzene
   18    18     0     0     0
SMALL
USER_CHARGES

@<TRIPOS>ATOM
      1 C1          1.8851   -1.0363   -0.1124 C.ar      1 MOL        -0.1337
      2 C2          0.8066   -0.4630    0.5610 C.ar      1 MOL        -0.1283
      3 C3          2.9210   -1.6309    0.6081 C.ar      1 MOL        -0.1283
      4 C4          0.7638   -0.4841    1.9551 C.ar      1 MOL        -0.1277
      5 C5          2.8783   -1.6520    2.0022 C.ar      1 MOL        -0.1277
      6 C6          1.7997   -1.0786    2.6757 C.ar      1 MOL        -0.0771
      7 C7          2.4188    0.1255    4.7860 C.3       1 MOL        -0.0886
      8 C8          1.7548   -1.1014    4.1663 C.3       1 MOL        -0.0386
      9 H1          1.9176   -1.0210   -1.1980 H         1 MOL         0.1293
     10 H2         -0.0006   -0.0010    0.0001 H         1 MOL         0.1300
     11 H3          3.7604   -2.0783    0.0841 H         1 MOL         0.1300
     12 H4         -0.0804   -0.0348    2.4713 H         1 MOL         0.1304
     13 H5          3.6899   -2.1173    2.5553 H         1 MOL         0.1304
     14 H6          3.4593    0.2175    4.4566 H         1 MOL         0.0360
     15 H7          2.4136    0.0586    5.8784 H         1 MOL         0.0360
     16 H8          1.8934    1.0430    4.4998 H         1 MOL         0.0360
     17 H9          0.7124   -1.1627    4.5182 H         1 MOL         0.0458
     18 H10         2.2459   -2.0095    4.5514 H         1 MOL         0.0458
@<TRIPOS>BOND
     1    1    2 ar
     2    1    3 ar
     3    2    4 ar
     4    3    5 ar
     5    4    6 ar
     6    5    6 ar
     7    6    8 1
     8    7    8 1
     9    1    9 1
    10    2   10 1
    11    3   11 1
    12    4   12 1
    13    5   13 1
    14    7   14 1
    15    7   15 1
    16    7   16 1
    17    8   17 1
    18    8   18 1
