@<TRIPOS>MOLECULE
1-methylpiperazine
   19    19     0     0     0
SMALL
USER_CHARGES

@<TRIPOS>ATOM
      1 C1         -0.3124   -0.9378    0.4727 C.3       1 MOL         0.1610
      2 C2          0.0898   -3.3035    0.5317 C.3       1 MOL         0.1610
      3 C3         -0.0739   -0.8523    1.9823 C.3       1 MOL         0.1689
      4 C4          0.3304   -3.2322    2.0417 C.3       1 MOL         0.1689
      5 C5         -0.1859   -2.0442    4.0765 C.3       1 MOL         0.1593
      6 N1          0.4337   -2.0438   -0.1317 N.3       1 MOL        -0.8195
      7 N2         -0.4223   -2.1203    2.6363 N.3       1 MOL        -0.7354
      8 H1         -1.3837   -1.0498    0.2627 H         1 MOL         0.0340
      9 H2          0.0081   -0.0003    0.0052 H         1 MOL         0.0340
     10 H3          0.7040   -4.1051    0.1069 H         1 MOL         0.0340
     11 H4         -0.9574   -3.5600    0.3265 H         1 MOL         0.0340
     12 H5          0.9747   -0.5881    2.1758 H         1 MOL         0.0360
     13 H6         -0.6949   -0.0436    2.3858 H         1 MOL         0.0360
     14 H7          0.0082   -4.1804    2.4886 H         1 MOL         0.0360
     15 H8          1.4058   -3.1255    2.2387 H         1 MOL         0.0360
     16 H9         -0.4489   -2.9931    4.5511 H         1 MOL         0.0313
     17 H10        -0.7938   -1.2497    4.5179 H         1 MOL         0.0313
     18 H11         0.8677   -1.8311    4.2758 H         1 MOL         0.0313
     19 H12         0.2057   -2.1072   -1.1232 H         1 MOL         0.3618
@<TRIPOS>BOND
     1    1    3 1
     2    1    6 1
     3    2    4 1
     4    2    6 1
     5    3    7 1
     6    4    7 1
     7    5    7 1
     8    1    8 1
     9    1    9 1
    10    2   10 1
    11    2   11 1
    12    3   12 1
    13    3   13 1
    14    4   14 1
    15    4   15 1
    16    5   16 1
    17    5   17 1
    18    5   18 1
    19    6   19 1
