@<TRIPOS>MOLECULE
2,6-dimethylphenol
   19    19     0     0     0
SMALL
USER_CHARGES

@<TRIPOS>ATOM
      1 C1          1.8851   -1.0363   -0.1124 C.ar      1 MOL        -0.1566
      2 C2          0.8066   -0.4630    0.5610 C.ar      1 MOL        -0.1029
      3 C3          2.9210   -1.6309    0.6081 C.ar      1 MOL        -0.1029
      4 C4          0.7638   -0.4841    1.9551 C.ar      1 MOL        -0.1253
      5 C5          2.8783   -1.6520    2.0022 C.ar      1 MOL        -0.1253
      6 C6          1.7997   -1.0786    2.6757 C.ar      1 MOL         0.1228
      7 C7         -0.3995    0.1347    2.6576 C.3       1 MOL        -0.0489
      8 C8          3.9970   -2.2931    2.7555 C.3       1 MOL        -0.0489
      9 O1          1.7585   -1.0981    4.0388 O.3       1 MOL        -0.5013
     10 H1          1.9183   -1.0200   -1.1979 H         1 MOL         0.1325
     11 H2          0.0045   -0.0021   -0.0092 H         1 MOL         0.1323
     12 H3          3.7571   -2.0747    0.0745 H         1 MOL         0.1323
     13 H4         -1.1918   -0.6079    2.8075 H         1 MOL         0.0455
     14 H5         -0.1053    0.5342    3.6360 H         1 MOL         0.0455
     15 H6         -0.8106    0.9729    2.0812 H         1 MOL         0.0455
     16 H7          4.7780   -1.5562    2.9761 H         1 MOL         0.0455
     17 H8          3.6437   -2.7217    3.7015 H         1 MOL         0.0455
     18 H9          4.4432   -3.1139    2.1803 H         1 MOL         0.0455
     19 H10         2.5449   -1.5434    4.3900 H         1 MOL         0.4193
@<TRIPOS>BOND
     1    1    2 ar
     2    1    3 ar
     3    2    4 ar
     4    3    5 ar
     5    4    6 ar
     6    4    7 1
     7    5    6 ar
     8    5    8 1
     9    6    9 1
    10    1   10 1
    11    2   11 1
    12    3   12 1
    13    7   13 1
    14    7   14 1
    15    7   15 1
    16    8   16 1
    17    8   17 1
    18    8   18 1
    19    9   19 1
