@<TRIPOS>MOLECULE
naphthalen-1-amine
   20    21     0     0     0
SMALL
USER_CHARGES

@<TRIPOS>ATOM
      1 C1         -0.4966   -2.0341    0.4940 C.ar      1 MOL        -0.1208
      2 C2          0.3500   -1.0275    0.0392 C.ar      1 MOL        -0.1389
      3 C3          3.0228   -5.3167   -0.2210 C.ar      1 MOL        -0.0850
      4 C4         -0.0479   -3.3542    0.5448 C.ar      1 MOL        -0.1244
      5 C5          1.6484   -1.3369   -0.3665 C.ar      1 MOL        -0.1117
      6 C6          1.7243   -5.0072    0.1848 C.ar      1 MOL        -0.1645
      7 C7          3.8693   -4.3100   -0.6758 C.ar      1 MOL        -0.2114
      8 C8          1.2560   -3.6839    0.1403 C.ar      1 MOL        -0.0049
      9 C9          2.1168   -2.6602   -0.3222 C.ar      1 MOL        -0.0675
     10 C10         3.4207   -2.9899   -0.7267 C.ar      1 MOL         0.1528
     11 N1          4.3229   -2.0046   -1.1971 N.pl3     1 MOL        -0.8185
     12 H1         -1.5069   -1.7923    0.8104 H         1 MOL         0.1313
     13 H2         -0.0002    0.0001    0.0000 H         1 MOL         0.1307
     14 H3          3.3728   -6.3444   -0.1827 H         1 MOL         0.1299
     15 H4         -0.7270   -4.1249    0.9033 H         1 MOL         0.1333
     16 H5          2.2782   -0.5216   -0.7147 H         1 MOL         0.1258
     17 H6          1.0805   -5.8101    0.5374 H         1 MOL         0.1320
     18 H7          4.8788   -4.5652   -0.9886 H         1 MOL         0.1312
     19 H8          5.2540   -2.2753   -1.4290 H         1 MOL         0.3904
     20 H9          4.0365   -1.0496   -1.1962 H         1 MOL         0.3904
@<TRIPOS>BOND
     1    1    2 ar
     2    1    4 ar
     3    2    5 ar
     4    3    6 ar
     5    3    7 ar
     6    4    8 ar
     7    5    9 ar
     8    6    8 ar
     9    7   10 ar
    10    8    9 ar
    11    9   10 ar
    12   10   11 1
    13    1   12 1
    14    2   13 1
    15    3   14 1
    16    4   15 1
    17    5   16 1
    18    6   17 1
    19    7   18 1
    20   11   19 1
    21   11   20 1
