@<TRIPOS>MOLECULE
(1S,5R)-5-isopropenyl-2-methyl-cyclohex-2-en-1-ol
   27    27     0     0     0
SMALL
USER_CHARGES

@<TRIPOS>ATOM
      1 C1         -2.8633   -2.4847    1.8507 C.2       1 MOL        -0.1543
      2 C2         -2.7245   -3.8104    1.6754 C.2       1 MOL        -0.1073
      3 C3          0.3928   -0.5358   -1.2148 C.2       1 MOL        -0.2243
      4 C4          0.1867   -1.0688   -0.0014 C.2       1 MOL        -0.1085
      5 C5         -1.9054   -1.4631    1.3105 C.3       1 MOL        -0.0428
      6 C6         -0.3992   -3.3941    0.7230 C.3       1 MOL        -0.1041
      7 C7         -1.5407   -4.3966    0.9428 C.3       1 MOL         0.1806
      8 C8         -0.9333   -2.0298    0.2626 C.3       1 MOL        -0.0277
      9 C9         -3.7292   -4.7832    2.2230 C.3       1 MOL        -0.0556
     10 C10         1.0634   -0.7370    1.1697 C.3       1 MOL        -0.0646
     11 O1         -1.9671   -4.8759   -0.3325 O.3       1 MOL        -0.5932
     12 H1         -3.7153   -2.1002    2.4055 H         1 MOL         0.1247
     13 H2          1.2063    0.1588   -1.3956 H         1 MOL         0.1130
     14 H3         -0.2472   -0.7819   -2.0557 H         1 MOL         0.1130
     15 H4         -2.4808   -0.6449    0.8593 H         1 MOL         0.0518
     16 H5         -1.3562   -1.0325    2.1579 H         1 MOL         0.0518
     17 H6          0.1596   -3.2711    1.6609 H         1 MOL         0.0480
     18 H7          0.3027   -3.7893   -0.0224 H         1 MOL         0.0480
     19 H8         -1.1429   -5.2522    1.5002 H         1 MOL         0.0340
     20 H9         -1.4750   -2.1665   -0.6828 H         1 MOL         0.0655
     21 H10        -4.5047   -4.9577    1.4814 H         1 MOL         0.0430
     22 H11        -4.1733   -4.3742    3.1275 H         1 MOL         0.0430
     23 H12        -3.2324   -5.7208    2.4606 H         1 MOL         0.0430
     24 H13         0.6680    0.1318    1.7060 H         1 MOL         0.0420
     25 H14         1.1071   -1.5833    1.8629 H         1 MOL         0.0420
     26 H15         2.0887   -0.5024    0.8644 H         1 MOL         0.0420
     27 H16        -1.1806   -5.2413   -0.7655 H         1 MOL         0.3969
@<TRIPOS>BOND
     1    1    2 2
     2    1    5 1
     3    2    7 1
     4    2    9 1
     5    3    4 2
     6    4    8 1
     7    4   10 1
     8    5    8 1
     9    6    7 1
    10    6    8 1
    11    7   11 1
    12    1   12 1
    13    3   13 1
    14    3   14 1
    15    5   15 1
    16    5   16 1
    17    6   17 1
    18    6   18 1
    19    7   19 1
    20    8   20 1
    21    9   21 1
    22    9   22 1
    23    9   23 1
    24   10   24 1
    25   10   25 1
    26   10   26 1
    27   11   27 1
