@<TRIPOS>MOLECULE
heptan-1-amine
   25    24     0     0     0
SMALL
USER_CHARGES

@<TRIPOS>ATOM
      1 C1          0.6451   -0.7072    0.1067 C.3       1 MOL        -0.0921
      2 C2          0.1466   -2.0967   -0.2574 C.3       1 MOL        -0.0803
      3 C3         -0.2982   -2.1672   -1.7189 C.3       1 MOL        -0.0785
      4 C4         -0.8290   -3.5588   -2.0696 C.3       1 MOL        -0.0780
      5 C5         -1.3010   -3.6830   -3.5212 C.3       1 MOL        -0.0786
      6 C6         -1.7630   -5.0943   -3.8931 C.3       1 MOL        -0.0825
      7 C7         -2.2538   -5.1485   -5.3398 C.3       1 MOL         0.1661
      8 N1         -2.6813   -6.5006   -5.6792 N.3       1 MOL        -0.9291
      9 H1         -0.1316    0.0452   -0.0637 H         1 MOL         0.0329
     10 H2          0.9440   -0.6605    1.1588 H         1 MOL         0.0329
     11 H3          1.5135   -0.4436   -0.5052 H         1 MOL         0.0329
     12 H4          0.9464   -2.8239   -0.0754 H         1 MOL         0.0381
     13 H5         -0.6899   -2.3624    0.3995 H         1 MOL         0.0381
     14 H6          0.5474   -1.9204   -2.3721 H         1 MOL         0.0389
     15 H7         -1.0745   -1.4137   -1.8928 H         1 MOL         0.0389
     16 H8         -0.0338   -4.2967   -1.9055 H         1 MOL         0.0400
     17 H9         -1.6498   -3.8242   -1.3921 H         1 MOL         0.0400
     18 H10        -2.1107   -2.9670   -3.7071 H         1 MOL         0.0390
     19 H11        -0.4688   -3.3951   -4.1759 H         1 MOL         0.0390
     20 H12        -0.9330   -5.7986   -3.7554 H         1 MOL         0.0461
     21 H13        -2.5724   -5.4111   -3.2251 H         1 MOL         0.0461
     22 H14        -3.0966   -4.4626   -5.4773 H         1 MOL         0.0226
     23 H15        -1.4557   -4.8384   -6.0233 H         1 MOL         0.0226
     24 H16        -2.6712   -6.7708   -6.6398 H         1 MOL         0.3524
     25 H17        -3.1558   -7.0338   -4.9816 H         1 MOL         0.3524
@<TRIPOS>BOND
     1    1    2 1
     2    2    3 1
     3    3    4 1
     4    4    5 1
     5    5    6 1
     6    6    7 1
     7    7    8 1
     8    1    9 1
     9    1   10 1
    10    1   11 1
    11    2   12 1
    12    2   13 1
    13    3   14 1
    14    3   15 1
    15    4   16 1
    16    4   17 1
    17    5   18 1
    18    5   19 1
    19    6   20 1
    20    6   21 1
    21    7   22 1
    22    7   23 1
    23    8   24 1
    24    8   25 1
