@<TRIPOS>MOLECULE
methyl 2,2-dimethylpropanoate
   20    19     0     0     0
SMALL
USER_CHARGES

@<TRIPOS>ATOM
      1 C1          2.9196   -1.5216    1.0965 C.2       1 MOL         0.6334
      2 C2          0.7043   -0.4120    0.7314 C.3       1 MOL        -0.0882
      3 C3          2.5939    0.0304   -0.8446 C.3       1 MOL        -0.0882
      4 C4          1.4943   -2.2146   -0.8431 C.3       1 MOL        -0.0882
      5 C5          3.1760   -2.9928    2.9354 C.3       1 MOL         0.1259
      6 C6          1.9238   -1.0345    0.0387 C.3       1 MOL        -0.0878
      7 O1          4.0726   -1.1204    1.1996 O.2       1 MOL        -0.5400
      8 O2          2.3401   -2.4606    1.9028 O.3       1 MOL        -0.4403
      9 H1         -0.0259   -0.0543   -0.0037 H         1 MOL         0.0473
     10 H2          0.2030   -1.1386    1.3806 H         1 MOL         0.0473
     11 H3          0.9864    0.4459    1.3521 H         1 MOL         0.0473
     12 H4          1.9052    0.3998   -1.6133 H         1 MOL         0.0473
     13 H5          3.4772   -0.3724   -1.3528 H         1 MOL         0.0473
     14 H6          2.9146    0.8944   -0.2510 H         1 MOL         0.0473
     15 H7          0.7799   -1.9043   -1.6140 H         1 MOL         0.0473
     16 H8          2.3547   -2.6633   -1.3520 H         1 MOL         0.0473
     17 H9          1.0088   -2.9955   -0.2464 H         1 MOL         0.0473
     18 H10         2.6152   -3.7297    3.5157 H         1 MOL         0.0491
     19 H11         3.5143   -2.1821    3.5856 H         1 MOL         0.0491
     20 H12         4.0426   -3.4758    2.4777 H         1 MOL         0.0491
@<TRIPOS>BOND
     1    1    6 1
     2    1    7 2
     3    1    8 1
     4    2    6 1
     5    3    6 1
     6    4    6 1
     7    5    8 1
     8    2    9 1
     9    2   10 1
    10    2   11 1
    11    3   12 1
    12    3   13 1
    13    3   14 1
    14    4   15 1
    15    4   16 1
    16    4   17 1
    17    5   18 1
    18    5   19 1
    19    5   20 1
