@<TRIPOS>MOLECULE
cyclohexanol
   19    19     0     0     0
SMALL
USER_CHARGES

@<TRIPOS>ATOM
      1 C1          0.8595   -0.5761   -0.3646 C.3       1 MOL        -0.0781
      2 C2          1.9981   -0.4824    0.6484 C.3       1 MOL        -0.0748
      3 C3          1.2772   -0.0492   -1.7356 C.3       1 MOL        -0.0748
      4 C4          2.5549    0.9347    0.7374 C.3       1 MOL        -0.0926
      5 C5          1.8340    1.3679   -1.6464 C.3       1 MOL        -0.0926
      6 C6          2.9750    1.4610   -0.6344 C.3       1 MOL         0.1425
      7 O1          3.4005    2.8144   -0.5171 O.3       1 MOL        -0.6008
      8 H1          0.5301   -1.6173   -0.4541 H         1 MOL         0.0415
      9 H2          0.0000   -0.0000    0.0001 H         1 MOL         0.0415
     10 H3          1.6426   -0.8026    1.6343 H         1 MOL         0.0403
     11 H4          2.8009   -1.1715    0.3584 H         1 MOL         0.0403
     12 H5          2.0377   -0.7130   -2.1648 H         1 MOL         0.0403
     13 H6          0.4174   -0.0658   -2.4146 H         1 MOL         0.0403
     14 H7          1.8026    1.6035    1.1761 H         1 MOL         0.0501
     15 H8          3.4104    0.9619    1.4230 H         1 MOL         0.0501
     16 H9          2.1833    1.6969   -2.6326 H         1 MOL         0.0501
     17 H10         1.0345    2.0666   -1.3668 H         1 MOL         0.0501
     18 H11         3.8350    0.8745   -0.9984 H         1 MOL         0.0298
     19 H12         4.1510    2.8174    0.0978 H         1 MOL         0.3970
@<TRIPOS>BOND
     1    1    2 1
     2    1    3 1
     3    2    4 1
     4    3    5 1
     5    4    6 1
     6    5    6 1
     7    6    7 1
     8    1    8 1
     9    1    9 1
    10    2   10 1
    11    2   11 1
    12    3   12 1
    13    3   13 1
    14    4   14 1
    15    4   15 1
    16    5   16 1
    17    5   17 1
    18    6   18 1
    19    7   19 1
