@<TRIPOS>MOLECULE
acetone
   10     9     0     0     0
SMALL
USER_CHARGES

@<TRIPOS>ATOM
      1 C1         -0.0565   -0.4470    2.0875 C.2       1 MOL         0.5639
      2 C2         -0.7025   -0.4113    0.7289 C.3       1 MOL        -0.2036
      3 C3          0.3848    0.8720    2.6618 C.3       1 MOL        -0.2036
      4 O1          0.1012   -1.5023    2.6993 O.2       1 MOL        -0.5356
      5 H1          0.0630   -0.5189   -0.0436 H         1 MOL         0.0632
      6 H2         -1.4345   -1.2187    0.6501 H         1 MOL         0.0632
      7 H3         -1.2142    0.5449    0.5888 H         1 MOL         0.0632
      8 H4         -0.4296    1.3116    3.2444 H         1 MOL         0.0632
      9 H5          0.6478    1.5552    1.8505 H         1 MOL         0.0632
     10 H6          1.2448    0.7166    3.3178 H         1 MOL         0.0632
@<TRIPOS>BOND
     1    1    2 1
     2    1    3 1
     3    1    4 2
     4    2    5 1
     5    2    6 1
     6    2    7 1
     7    3    8 1
     8    3    9 1
     9    3   10 1
