@<TRIPOS>MOLECULE
phenanthrene
   24    26     0     0     0
SMALL
USER_CHARGES

@<TRIPOS>ATOM
      1 C1         -6.1104   -1.6946   -5.2170 C.ar      1 MOL        -0.1267
      2 C2         -0.7996   -0.2600   -0.6868 C.ar      1 MOL        -0.1266
      3 C3         -5.3789   -2.7590   -4.7133 C.ar      1 MOL        -0.1282
      4 C4         -1.0390   -1.5865   -1.0103 C.ar      1 MOL        -0.1282
      5 C5         -5.7907   -0.3971   -4.8293 C.ar      1 MOL        -0.1186
      6 C6         -1.5914    0.7372   -1.2478 C.ar      1 MOL        -0.1186
      7 C7         -4.3284   -2.5248   -3.8220 C.ar      1 MOL        -0.1179
      8 C8         -2.0700   -1.9147   -1.8948 C.ar      1 MOL        -0.1179
      9 C9         -4.4437    1.1681   -3.5665 C.ar      1 MOL        -0.1172
     10 C10        -3.4069    1.4481   -2.6824 C.ar      1 MOL        -0.1172
     11 C11        -4.7367   -0.1476   -3.9338 C.ar      1 MOL        -0.0367
     12 C12        -2.6316    0.4210   -2.1384 C.ar      1 MOL        -0.0367
     13 C13        -3.9715   -1.2186   -3.4026 C.ar      1 MOL        -0.0178
     14 C14        -2.8985   -0.9287   -2.4872 C.ar      1 MOL        -0.0178
     15 H1         -6.9275   -1.8711   -5.9098 H         1 MOL         0.1344
     16 H2          0.0003    0.0003   -0.0005 H         1 MOL         0.1344
     17 H3         -5.6211   -3.7754   -5.0101 H         1 MOL         0.1314
     18 H4         -0.4264   -2.3719   -0.5774 H         1 MOL         0.1314
     19 H5         -6.3771    0.4249   -5.2360 H         1 MOL         0.1322
     20 H6         -1.3874    1.7728   -0.9810 H         1 MOL         0.1322
     21 H7         -3.7904   -3.3974   -3.4607 H         1 MOL         0.1318
     22 H8         -2.2108   -2.9706   -2.1110 H         1 MOL         0.1318
     23 H9         -5.0225    1.9986   -3.9661 H         1 MOL         0.1330
     24 H10        -3.2124    2.4877   -2.4244 H         1 MOL         0.1330
@<TRIPOS>BOND
     1    1    3 ar
     2    1    5 ar
     3    2    4 ar
     4    2    6 ar
     5    3    7 ar
     6    4    8 ar
     7    5   11 ar
     8    6   12 ar
     9    7   13 ar
    10    8   14 ar
    11    9   10 ar
    12    9   11 ar
    13   10   12 ar
    14   11   13 ar
    15   12   14 ar
    16   13   14 ar
    17    1   15 1
    18    2   16 1
    19    3   17 1
    20    4   18 1
    21    5   19 1
    22    6   20 1
    23    7   21 1
    24    8   22 1
    25    9   23 1
    26   10   24 1
