@<TRIPOS>MOLECULE
1,2,3-trimethylbenzene
   21    21     0     0     0
SMALL
USER_CHARGES

@<TRIPOS>ATOM
      1 C1          1.8851   -1.0363   -0.1124 C.ar      1 MOL        -0.1280
      2 C2          0.8066   -0.4630    0.5610 C.ar      1 MOL        -0.1334
      3 C3          2.9210   -1.6309    0.6081 C.ar      1 MOL        -0.1334
      4 C4          0.7638   -0.4841    1.9551 C.ar      1 MOL        -0.0740
      5 C5          2.8783   -1.6520    2.0022 C.ar      1 MOL        -0.0740
      6 C6          1.7997   -1.0786    2.6757 C.ar      1 MOL        -0.0726
      7 C7         -0.4027    0.1365    2.6520 C.3       1 MOL        -0.0542
      8 C8          4.0002   -2.2952    2.7501 C.3       1 MOL        -0.0542
      9 C9          1.7539   -1.1012    4.1705 C.3       1 MOL        -0.0548
     10 H1          1.9188   -1.0191   -1.1981 H         1 MOL         0.1293
     11 H2          0.0044   -0.0027   -0.0099 H         1 MOL         0.1292
     12 H3          3.7565   -2.0752    0.0739 H         1 MOL         0.1292
     13 H4         -1.1952   -0.6059    2.8002 H         1 MOL         0.0433
     14 H5         -0.1117    0.5378    3.6304 H         1 MOL         0.0433
     15 H6         -0.8110    0.9733    2.0720 H         1 MOL         0.0433
     16 H7          4.7818   -1.5588    2.9689 H         1 MOL         0.0433
     17 H8          3.6500   -2.7255    3.6963 H         1 MOL         0.0433
     18 H9          4.4435   -3.1147    2.1711 H         1 MOL         0.0433
     19 H10         1.2459   -2.0069    4.5191 H         1 MOL         0.0437
     20 H11         2.7638   -1.0788    4.5962 H         1 MOL         0.0437
     21 H12         1.2211   -0.2266    4.5617 H         1 MOL         0.0437
@<TRIPOS>BOND
     1    1    2 ar
     2    1    3 ar
     3    2    4 ar
     4    3    5 ar
     5    4    6 ar
     6    4    7 1
     7    5    6 ar
     8    5    8 1
     9    6    9 1
    10    1   10 1
    11    2   11 1
    12    3   12 1
    13    7   13 1
    14    7   14 1
    15    7   15 1
    16    8   16 1
    17    8   17 1
    18    8   18 1
    19    9   19 1
    20    9   20 1
    21    9   21 1
