@<TRIPOS>MOLECULE
2-benzhydryloxy-N,N-dimethyl-ethanamine
   40    41     0     0     0
SMALL
USER_CHARGES

@<TRIPOS>ATOM
      1 C1          3.1075   -6.4433   -0.2184 C.ar      1 MOL        -0.1241
      2 C2          4.8346   -2.1026    5.2289 C.ar      1 MOL        -0.1241
      3 C3          3.1563   -6.9981    1.0604 C.ar      1 MOL        -0.1340
      4 C4          2.5981   -5.1578   -0.4021 C.ar      1 MOL        -0.1340
      5 C5          4.5596   -3.4345    5.5389 C.ar      1 MOL        -0.1340
      6 C6          4.0894   -1.4463    4.2493 C.ar      1 MOL        -0.1340
      7 C7          2.6955   -6.2674    2.1556 C.ar      1 MOL        -0.1112
      8 C8          2.1374   -4.4271    0.6931 C.ar      1 MOL        -0.1112
      9 C9          3.5396   -4.1102    4.8692 C.ar      1 MOL        -0.1112
     10 C10         3.0693   -2.1220    3.5795 C.ar      1 MOL        -0.1112
     11 C11         2.1861   -4.9819    1.9720 C.ar      1 MOL        -0.0984
     12 C12         2.7944   -3.4540    3.8895 C.ar      1 MOL        -0.0984
     13 C13        -3.3843   -1.1003    4.0346 C.3       1 MOL         0.1597
     14 C14        -1.4213   -0.5097    5.2877 C.3       1 MOL         0.1597
     15 C15        -1.2375   -1.9565    3.3784 C.3       1 MOL         0.1706
     16 C16        -0.1460   -2.8934    3.8627 C.3       1 MOL         0.1208
     17 C17         1.6854   -4.1881    3.1608 C.3       1 MOL         0.2346
     18 N1         -2.0778   -1.5574    4.5068 N.3       1 MOL        -0.7461
     19 O1          0.6465   -3.3068    2.7568 O.3       1 MOL        -0.4123
     20 H1          3.4675   -7.0118   -1.0709 H         1 MOL         0.1310
     21 H2          5.6280   -1.5762    5.7514 H         1 MOL         0.1310
     22 H3          3.5539   -7.9986    1.2037 H         1 MOL         0.1315
     23 H4          2.5610   -4.7251   -1.3974 H         1 MOL         0.1315
     24 H5          5.1391   -3.9453    6.3024 H         1 MOL         0.1315
     25 H6          4.3024   -0.4091    4.0084 H         1 MOL         0.1315
     26 H7          2.7372   -6.7078    3.1484 H         1 MOL         0.1382
     27 H8          1.7420   -3.4263    0.5405 H         1 MOL         0.1382
     28 H9          3.3326   -5.1479    5.1171 H         1 MOL         0.1382
     29 H10         2.4940   -1.6027    2.8176 H         1 MOL         0.1382
     30 H11        -3.8697   -1.8876    3.4519 H         1 MOL         0.0311
     31 H12        -3.2694   -0.2152    3.4031 H         1 MOL         0.0311
     32 H13        -4.0247   -0.8448    4.8831 H         1 MOL         0.0311
     33 H14        -0.4458   -0.8573    5.6376 H         1 MOL         0.0311
     34 H15        -2.0326   -0.2454    6.1549 H         1 MOL         0.0311
     35 H16        -1.2773    0.3843    4.6749 H         1 MOL         0.0311
     36 H17        -0.8141   -1.0524    2.9295 H         1 MOL         0.0449
     37 H18        -1.8716   -2.4590    2.6417 H         1 MOL         0.0449
     38 H19        -0.5910   -3.7867    4.3120 H         1 MOL         0.0376
     39 H20         0.5029   -2.4087    4.5994 H         1 MOL         0.0376
     40 H21         1.1999   -4.8782    3.8628 H         1 MOL         0.0460
@<TRIPOS>BOND
     1    1    3 ar
     2    1    4 ar
     3    2    5 ar
     4    2    6 ar
     5    3    7 ar
     6    4    8 ar
     7    5    9 ar
     8    6   10 ar
     9    7   11 ar
    10    8   11 ar
    11    9   12 ar
    12   10   12 ar
    13   11   17 1
    14   12   17 1
    15   13   18 1
    16   14   18 1
    17   15   16 1
    18   15   18 1
    19   16   19 1
    20   17   19 1
    21    1   20 1
    22    2   21 1
    23    3   22 1
    24    4   23 1
    25    5   24 1
    26    6   25 1
    27    7   26 1
    28    8   27 1
    29    9   28 1
    30   10   29 1
    31   13   30 1
    32   13   31 1
    33   13   32 1
    34   14   33 1
    35   14   34 1
    36   14   35 1
    37   15   36 1
    38   15   37 1
    39   16   38 1
    40   16   39 1
    41   17   40 1
