@<TRIPOS>MOLECULE
2-methylaniline
   17    17     0     0     0
SMALL
USER_CHARGES

@<TRIPOS>ATOM
      1 C1          1.8851   -1.0363   -0.1124 C.ar      1 MOL        -0.1713
      2 C2          0.8066   -0.4630    0.5610 C.ar      1 MOL        -0.0962
      3 C3          2.9210   -1.6309    0.6081 C.ar      1 MOL        -0.0946
      4 C4          0.7638   -0.4841    1.9551 C.ar      1 MOL        -0.1917
      5 C5          2.8783   -1.6520    2.0022 C.ar      1 MOL        -0.1382
      6 C6          1.7997   -1.0786    2.6757 C.ar      1 MOL         0.1451
      7 C7          4.0014   -2.2955    2.7485 C.3       1 MOL        -0.0487
      8 N1          1.7396   -1.0907    4.0865 N.pl3     1 MOL        -0.8260
      9 H1          1.9183   -1.0198   -1.1979 H         1 MOL         0.1303
     10 H2          0.0001   -0.0002   -0.0002 H         1 MOL         0.1282
     11 H3          3.7569   -2.0748    0.0739 H         1 MOL         0.1280
     12 H4         -0.0818   -0.0342    2.4690 H         1 MOL         0.1302
     13 H5          4.7829   -1.5588    2.9668 H         1 MOL         0.0412
     14 H6          3.6522   -2.7263    3.6947 H         1 MOL         0.0412
     15 H7          4.4441   -3.1143    2.1684 H         1 MOL         0.0412
     16 H8          0.9796   -0.6317    4.5446 H         1 MOL         0.3906
     17 H9          2.5044   -1.4747    4.6021 H         1 MOL         0.3906
@<TRIPOS>BOND
     1    1    2 ar
     2    1    3 ar
     3    2    4 ar
     4    3    5 ar
     5    4    6 ar
     6    5    6 ar
     7    5    7 1
     8    6    8 1
     9    1    9 1
    10    2   10 1
    11    3   11 1
    12    4   12 1
    13    7   13 1
    14    7   14 1
    15    7   15 1
    16    8   16 1
    17    8   17 1
