@<TRIPOS>MOLECULE
methyl 2,2,2-trifluoroacetate
   11    10     0     0     0
SMALL
USER_CHARGES

@<TRIPOS>ATOM
      1 C1          0.1400   -1.0129    2.4552 C.2       1 MOL         0.5922
      2 C2         -0.4486   -0.9868    0.1664 C.3       1 MOL         0.1224
      3 C3         -0.4290   -1.1781    3.8267 C.3       1 MOL         0.6044
      4 O1          1.3259   -0.8196    2.2247 O.2       1 MOL        -0.4666
      5 O2         -0.8571   -1.1186    1.5318 O.3       1 MOL        -0.4044
      6 F1         -1.7694   -1.3875    3.8018 F         1 MOL        -0.2124
      7 F2          0.1220   -2.2316    4.4808 F         1 MOL        -0.2124
      8 F3         -0.2161   -0.0810    4.5963 F         1 MOL        -0.2124
      9 H1         -1.3191   -1.0869   -0.4864 H         1 MOL         0.0631
     10 H2          0.2885   -1.7582   -0.0705 H         1 MOL         0.0631
     11 H3         -0.0000   -0.0009    0.0232 H         1 MOL         0.0631
@<TRIPOS>BOND
     1    1    3 1
     2    1    4 2
     3    1    5 1
     4    2    5 1
     5    3    6 1
     6    3    7 1
     7    3    8 1
     8    2    9 1
     9    2   10 1
    10    2   11 1
