@<TRIPOS>MOLECULE
chlorobenzene
   12    12     0     0     0
SMALL
USER_CHARGES

@<TRIPOS>ATOM
      1 C1          1.8851   -1.0363   -0.1124 C.ar      1 MOL        -0.1294
      2 C2          0.8066   -0.4630    0.5610 C.ar      1 MOL        -0.1219
      3 C3          2.9210   -1.6309    0.6081 C.ar      1 MOL        -0.1219
      4 C4          0.7638   -0.4841    1.9551 C.ar      1 MOL        -0.1245
      5 C5          2.8783   -1.6520    2.0022 C.ar      1 MOL        -0.1245
      6 C6          1.7997   -1.0786    2.6757 C.ar      1 MOL         0.0174
      7 Cl1         1.7476   -1.1039    4.3957 Cl        1 MOL        -0.0969
      8 H1          1.9184   -1.0200   -1.1979 H         1 MOL         0.1354
      9 H2          0.0002   -0.0001   -0.0003 H         1 MOL         0.1366
     10 H3          3.7607   -2.0771    0.0834 H         1 MOL         0.1366
     11 H4         -0.0833   -0.0334    2.4660 H         1 MOL         0.1465
     12 H5          3.6929   -2.1190    2.5501 H         1 MOL         0.1465
@<TRIPOS>BOND
     1    1    2 ar
     2    1    3 ar
     3    2    4 ar
     4    3    5 ar
     5    4    6 ar
     6    5    6 ar
     7    6    7 1
     8    1    8 1
     9    2    9 1
    10    3   10 1
    11    4   11 1
    12    5   12 1
