@<TRIPOS>MOLECULE
2,5-dimethylphenol
   19    19     0     0     0
SMALL
USER_CHARGES

@<TRIPOS>ATOM
      1 C1          1.8851   -1.0363   -0.1124 C.ar      1 MOL        -0.1612
      2 C2          0.8066   -0.4630    0.5610 C.ar      1 MOL        -0.0975
      3 C3          2.8783   -1.6520    2.0022 C.ar      1 MOL        -0.2115
      4 C4          2.9210   -1.6309    0.6081 C.ar      1 MOL        -0.0438
      5 C5          0.7638   -0.4841    1.9551 C.ar      1 MOL        -0.1037
      6 C6          1.7997   -1.0786    2.6757 C.ar      1 MOL         0.1250
      7 C7          4.0737   -2.2444   -0.1125 C.3       1 MOL        -0.0553
      8 C8         -0.3977    0.1356    2.6590 C.3       1 MOL        -0.0438
      9 O1          1.7731   -1.1089    4.0375 O.3       1 MOL        -0.4999
     10 H1          1.9108   -1.0163   -1.1988 H         1 MOL         0.1319
     11 H2          0.0038   -0.0034   -0.0095 H         1 MOL         0.1344
     12 H3          3.6844   -2.1153    2.5658 H         1 MOL         0.1322
     13 H4          4.8656   -1.5016   -0.2685 H         1 MOL         0.0451
     14 H5          4.4935   -3.0871    0.4519 H         1 MOL         0.0451
     15 H6          3.7681   -2.6381   -1.0906 H         1 MOL         0.0451
     16 H7         -1.1911   -0.6059    2.8095 H         1 MOL         0.0468
     17 H8         -0.1021    0.5342    3.6376 H         1 MOL         0.0468
     18 H9         -0.8086    0.9749    2.0838 H         1 MOL         0.0468
     19 H10         2.5634   -1.5566    4.3781 H         1 MOL         0.4176
@<TRIPOS>BOND
     1    1    2 ar
     2    1    4 ar
     3    2    5 ar
     4    3    4 ar
     5    3    6 ar
     6    4    7 1
     7    5    6 ar
     8    5    8 1
     9    6    9 1
    10    1   10 1
    11    2   11 1
    12    3   12 1
    13    7   13 1
    14    7   14 1
    15    7   15 1
    16    8   16 1
    17    8   17 1
    18    8   18 1
    19    9   19 1
