@<TRIPOS>MOLECULE
p-cresol
   16    16     0     0     0
SMALL
USER_CHARGES

@<TRIPOS>ATOM
      1 C1          1.8851   -1.0363   -0.1124 C.ar      1 MOL        -0.0947
      2 C2          2.8783   -1.6520    2.0022 C.ar      1 MOL        -0.0947
      3 C3          0.8066   -0.4630    0.5610 C.ar      1 MOL        -0.1816
      4 C4          1.7997   -1.0786    2.6757 C.ar      1 MOL        -0.1816
      5 C5          2.9210   -1.6309    0.6081 C.ar      1 MOL        -0.1120
      6 C6          0.7638   -0.4841    1.9551 C.ar      1 MOL         0.1180
      7 C7          4.0745   -2.2433   -0.1117 C.3       1 MOL        -0.0485
      8 O1         -0.2881    0.0765    2.6120 O.3       1 MOL        -0.4978
      9 H1          1.9102   -1.0154   -1.1986 H         1 MOL         0.1331
     10 H2          3.6809   -2.1132    2.5719 H         1 MOL         0.1331
     11 H3          0.0027   -0.0010   -0.0060 H         1 MOL         0.1409
     12 H4          1.7724   -1.0980    3.7615 H         1 MOL         0.1409
     13 H5          4.8663   -1.5001   -0.2668 H         1 MOL         0.0424
     14 H6          4.4944   -3.0862    0.4525 H         1 MOL         0.0424
     15 H7          3.7701   -2.6367   -1.0904 H         1 MOL         0.0424
     16 H8         -0.1742   -0.0173    3.5713 H         1 MOL         0.4177
@<TRIPOS>BOND
     1    1    3 ar
     2    1    5 ar
     3    2    4 ar
     4    2    5 ar
     5    3    6 ar
     6    4    6 ar
     7    5    7 1
     8    6    8 1
     9    1    9 1
    10    2   10 1
    11    3   11 1
    12    4   12 1
    13    7   13 1
    14    7   14 1
    15    7   15 1
    16    8   16 1
