@<TRIPOS>MOLECULE
1-acetoxyethyl acetate
   20    19     0     0     0
SMALL
USER_CHARGES

@<TRIPOS>ATOM
      1 C1          1.2722   -1.7662    0.3116 C.2       1 MOL         0.6428
      2 C2          3.1344   -5.1223   -0.9241 C.2       1 MOL         0.6428
      3 C3          0.9939   -0.3188    0.5828 C.3       1 MOL        -0.1504
      4 C4          4.4969   -5.4031   -0.3667 C.3       1 MOL        -0.1504
      5 C5          1.7138   -3.2985   -2.9814 C.3       1 MOL        -0.1422
      6 C6          1.6575   -3.3148   -1.4604 C.3       1 MOL         0.3576
      7 O1          1.3720   -2.6196    1.1826 O.2       1 MOL        -0.5394
      8 O2          2.3547   -5.9895   -1.2937 O.2       1 MOL        -0.5394
      9 O3          1.3892   -1.9629   -1.0325 O.3       1 MOL        -0.4390
     10 O4          2.9236   -3.7759   -0.9490 O.3       1 MOL        -0.4390
     11 H1          1.9349    0.2217    0.7127 H         1 MOL         0.0788
     12 H2          0.4147    0.1078   -0.2401 H         1 MOL         0.0788
     13 H3          0.4108   -0.2281    1.5037 H         1 MOL         0.0788
     14 H4          5.2309   -5.4259   -1.1758 H         1 MOL         0.0788
     15 H5          4.7598   -4.6414    0.3716 H         1 MOL         0.0788
     16 H6          4.4924   -6.3789    0.1275 H         1 MOL         0.0788
     17 H7          2.5293   -2.6596   -3.3349 H         1 MOL         0.0630
     18 H8          0.7713   -2.9477   -3.4122 H         1 MOL         0.0630
     19 H9          1.8957   -4.3072   -3.3694 H         1 MOL         0.0630
     20 H10         0.8356   -3.9590   -1.1225 H         1 MOL         0.0946
@<TRIPOS>BOND
     1    1    3 1
     2    1    7 2
     3    1    9 1
     4    2    4 1
     5    2    8 2
     6    2   10 1
     7    5    6 1
     8    6    9 1
     9    6   10 1
    10    3   11 1
    11    3   12 1
    12    3   13 1
    13    4   14 1
    14    4   15 1
    15    4   16 1
    16    5   17 1
    17    5   18 1
    18    5   19 1
    19    6   20 1
