@<TRIPOS>MOLECULE
(3S)-3-methylheptane
   26    25     0     0     0
SMALL
USER_CHARGES

@<TRIPOS>ATOM
      1 C1          0.6894    1.0466    8.6992 C.3       1 MOL        -0.0915
      2 C2          3.1983   -2.7139    2.5639 C.3       1 MOL        -0.0920
      3 C3          3.1924    0.0775    3.8048 C.3       1 MOL        -0.0895
      4 C4          1.6984    0.0673    8.1206 C.3       1 MOL        -0.0809
      5 C5          3.2340   -2.4520    4.0632 C.3       1 MOL        -0.0773
      6 C6          1.5498   -0.0602    6.6032 C.3       1 MOL        -0.0782
      7 C7          2.5949   -1.0190    6.0236 C.3       1 MOL        -0.0770
      8 C8          2.5482   -1.1349    4.4840 C.3       1 MOL        -0.0640
      9 H1         -0.3348    0.7365    8.4686 H         1 MOL         0.0327
     10 H2          0.7906    1.1175    9.7869 H         1 MOL         0.0327
     11 H3          0.8455    2.0447    8.2778 H         1 MOL         0.0327
     12 H4          2.1731   -2.7553    2.1857 H         1 MOL         0.0327
     13 H5          3.6682   -3.6774    2.3413 H         1 MOL         0.0327
     14 H6          3.7415   -1.9380    2.0157 H         1 MOL         0.0327
     15 H7          4.2472    0.1750    4.0779 H         1 MOL         0.0334
     16 H8          3.1292   -0.0007    2.7143 H         1 MOL         0.0334
     17 H9          2.7079    1.0103    4.1073 H         1 MOL         0.0334
     18 H10         2.7107    0.4067    8.3691 H         1 MOL         0.0371
     19 H11         1.5594   -0.9129    8.5914 H         1 MOL         0.0371
     20 H12         4.2860   -2.4232    4.3734 H         1 MOL         0.0375
     21 H13         2.7746   -3.2995    4.5870 H         1 MOL         0.0375
     22 H14         0.5402   -0.4186    6.3753 H         1 MOL         0.0395
     23 H15         1.6593    0.9277    6.1399 H         1 MOL         0.0395
     24 H16         2.4676   -2.0120    6.4736 H         1 MOL         0.0391
     25 H17         3.5910   -0.6658    6.3206 H         1 MOL         0.0391
     26 H18         1.4959   -1.1813    4.1743 H         1 MOL         0.0476
@<TRIPOS>BOND
     1    1    4 1
     2    2    5 1
     3    3    8 1
     4    4    6 1
     5    5    8 1
     6    6    7 1
     7    7    8 1
     8    1    9 1
     9    1   10 1
    10    1   11 1
    11    2   12 1
    12    2   13 1
    13    2   14 1
    14    3   15 1
    15    3   16 1
    16    3   17 1
    17    4   18 1
    18    4   19 1
    19    5   20 1
    20    5   21 1
    21    6   22 1
    22    6   23 1
    23    7   24 1
    24    7   25 1
    25    8   26 1
