@<TRIPOS>MOLECULE
pyridine-4-carbonitrile
   12    12     0     0     0
SMALL
USER_CHARGES

@<TRIPOS>ATOM
      1 C1          2.3060    0.8582    1.0694 C.1       1 MOL         0.2254
      2 C2          0.2265   -0.4197    0.9733 C.ar      1 MOL        -0.2104
      3 C3          1.6520   -0.6227    2.8997 C.ar      1 MOL        -0.2104
      4 C4         -0.6317   -1.3224    1.5803 C.ar      1 MOL         0.3936
      5 C5          0.7299   -1.5161    3.4206 C.ar      1 MOL         0.3936
      6 C6          1.3879   -0.0684    1.6522 C.ar      1 MOL         0.0227
      7 N1          3.0517    1.6109    0.5961 N.1       1 MOL        -0.3439
      8 N2         -0.4092   -1.8816    2.7908 N.ar      1 MOL        -0.6471
      9 H1         -0.0133   -0.0084   -0.0019 H         1 MOL         0.1570
     10 H2          2.5477   -0.3729    3.4592 H         1 MOL         0.1570
     11 H3         -1.5511   -1.6289    1.0925 H         1 MOL         0.0312
     12 H4          0.8893   -1.9760    4.3905 H         1 MOL         0.0312
@<TRIPOS>BOND
     1    1    6 1
     2    1    7 3
     3    2    4 ar
     4    2    6 ar
     5    3    5 ar
     6    3    6 ar
     7    4    8 ar
     8    5    8 ar
     9    2    9 1
    10    3   10 1
    11    4   11 1
    12    5   12 1
