@<TRIPOS>MOLECULE
3-(dimethoxyphosphinothioylsulfanylmethyl)-1,2,3-benzotriazin-4-one
   31    32     0     0     0
SMALL
USER_CHARGES

@<TRIPOS>ATOM
      1 C1         -1.2263   -1.7584    0.8987 C.ar      1 MOL        -0.1286
      2 C2         -0.0961   -1.1217    0.3904 C.ar      1 MOL        -0.1003
      3 C3         -1.3113   -3.1488    0.8712 C.ar      1 MOL        -0.0640
      4 C4          0.9496   -1.8766   -0.1453 C.ar      1 MOL        -0.0913
      5 C5         -0.2563   -3.8911    0.3317 C.ar      1 MOL        -0.1621
      6 C6          0.8778   -3.2744   -0.1790 C.ar      1 MOL         0.1077
      7 C7         -0.2932   -5.3525    0.2785 C.2       1 MOL         0.6978
      8 C8         -1.6761   -5.3463   -2.9696 C.3       1 MOL         0.1156
      9 C9         -1.9015  -10.0132   -0.7914 C.3       1 MOL         0.1156
     10 C10         0.9418   -7.3868   -0.4101 C.3       1 MOL         0.3548
     11 N1          1.9469   -3.9938   -0.7225 N.2       1 MOL        -0.2224
     12 N2          1.8999   -5.2419   -0.7613 N.2       1 MOL         0.0167
     13 N3          0.8269   -5.9437   -0.2847 N.am      1 MOL        -0.2675
     14 O1         -1.2714   -5.9507    0.7160 O.2       1 MOL        -0.5930
     15 O2         -1.9757   -6.3918   -2.0597 O.3       1 MOL        -0.4737
     16 O3         -2.0836   -8.6252   -1.0172 O.3       1 MOL        -0.4737
     17 P1         -1.4576   -7.9153   -2.3509 P.3       1 MOL         0.8824
     18 S1         -2.2139   -8.6545   -4.0036 S.2       1 MOL        -0.5074
     19 S2          0.6566   -7.9032   -2.1137 S.3       1 MOL        -0.4608
     20 H1         -2.0396   -1.1717    1.3154 H         1 MOL         0.1474
     21 H2         -0.0276   -0.0379    0.4106 H         1 MOL         0.1431
     22 H3         -2.1978   -3.6330    1.2705 H         1 MOL         0.1641
     23 H4          1.8252   -1.3646   -0.5378 H         1 MOL         0.1623
     24 H5         -2.1048   -4.4100   -2.6039 H         1 MOL         0.0712
     25 H6         -2.0878   -5.5885   -3.9526 H         1 MOL         0.0712
     26 H7         -0.5913   -5.2422   -3.0466 H         1 MOL         0.0712
     27 H8         -2.3891  -10.2980    0.1441 H         1 MOL         0.0712
     28 H9         -0.8332  -10.2380   -0.7410 H         1 MOL         0.0712
     29 H10        -2.3504  -10.5697   -1.6176 H         1 MOL         0.0712
     30 H11         1.9448   -7.6776   -0.0885 H         1 MOL         0.1050
     31 H12         0.2039   -7.8457    0.2527 H         1 MOL         0.1050
@<TRIPOS>BOND
     1    1    2 ar
     2    1    3 ar
     3    2    4 ar
     4    3    5 ar
     5    4    6 ar
     6    5    6 ar
     7    5    7 1
     8    6   11 1
     9    7   13 am
    10    7   14 2
    11    8   15 1
    12    9   16 1
    13   10   13 1
    14   10   19 1
    15   11   12 2
    16   12   13 1
    17   15   17 1
    18   16   17 1
    19   17   18 2
    20   17   19 1
    21    1   20 1
    22    2   21 1
    23    3   22 1
    24    4   23 1
    25    8   24 1
    26    8   25 1
    27    8   26 1
    28    9   27 1
    29    9   28 1
    30    9   29 1
    31   10   30 1
    32   10   31 1
