@<TRIPOS>MOLECULE
piperidine
   17    17     0     0     0
SMALL
USER_CHARGES

@<TRIPOS>ATOM
      1 C1          0.5789    0.0384   -1.3659 C.3       1 MOL        -0.0770
      2 C2          0.6371   -1.2155   -0.4991 C.3       1 MOL        -0.0768
      3 C3          0.4799    1.2871   -0.4951 C.3       1 MOL        -0.0768
      4 C4         -0.5084   -1.2445    0.5109 C.3       1 MOL         0.1655
      5 C5         -0.6602    1.1695    0.5144 C.3       1 MOL         0.1655
      6 N1         -0.5273   -0.0351    1.3347 N.3       1 MOL        -0.8232
      7 H1          1.4820    0.0961   -1.9858 H         1 MOL         0.0386
      8 H2         -0.2771   -0.0142   -2.0474 H         1 MOL         0.0386
      9 H3          0.5858   -2.1049   -1.1399 H         1 MOL         0.0456
     10 H4          1.5970   -1.2564    0.0277 H         1 MOL         0.0456
     11 H5          1.4272    1.4459    0.0323 H         1 MOL         0.0456
     12 H6          0.3180    2.1652   -1.1332 H         1 MOL         0.0456
     13 H7         -1.4626   -1.3271   -0.0209 H         1 MOL         0.0252
     14 H8         -0.4288   -2.1303    1.1526 H         1 MOL         0.0252
     15 H9         -0.6924    2.0564    1.1586 H         1 MOL         0.0252
     16 H10        -1.6171    1.1331   -0.0177 H         1 MOL         0.0252
     17 H11        -1.3187   -0.0857    1.9768 H         1 MOL         0.3625
@<TRIPOS>BOND
     1    1    2 1
     2    1    3 1
     3    2    4 1
     4    3    5 1
     5    4    6 1
     6    5    6 1
     7    1    7 1
     8    1    8 1
     9    2    9 1
    10    2   10 1
    11    3   11 1
    12    3   12 1
    13    4   13 1
    14    4   14 1
    15    5   15 1
    16    5   16 1
    17    6   17 1
