@<TRIPOS>MOLECULE
ethyl propanoate
   17    16     0     0     0
SMALL
USER_CHARGES

@<TRIPOS>ATOM
      1 C1         -2.0715    1.2977    2.4497 C.2       1 MOL         0.6415
      2 C2         -0.8816    0.5302    0.3734 C.3       1 MOL        -0.0956
      3 C3         -2.8772    1.8005    5.9866 C.3       1 MOL        -0.1312
      4 C4         -0.8823    0.5514    1.8920 C.3       1 MOL        -0.1386
      5 C5         -3.0831    1.9316    4.4926 C.3       1 MOL         0.1554
      6 O1         -2.9385    1.8436    1.7813 O.2       1 MOL        -0.5008
      7 O2         -2.0159    1.2612    3.8143 O.3       1 MOL        -0.4768
      8 H1         -1.7850    0.0473   -0.0137 H         1 MOL         0.0468
      9 H2         -0.8422    1.5497   -0.0221 H         1 MOL         0.0468
     10 H3         -0.0168   -0.0202   -0.0117 H         1 MOL         0.0468
     11 H4         -2.8766    0.7498    6.2897 H         1 MOL         0.0519
     12 H5         -1.9276    2.2556    6.2868 H         1 MOL         0.0519
     13 H6         -3.6683    2.3252    6.5326 H         1 MOL         0.0519
     14 H7          0.0313    1.0393    2.2480 H         1 MOL         0.0777
     15 H8         -0.9104   -0.4767    2.2684 H         1 MOL         0.0777
     16 H9         -3.0827    2.9847    4.1961 H         1 MOL         0.0474
     17 H10        -4.0319    1.4756    4.1943 H         1 MOL         0.0474
@<TRIPOS>BOND
     1    1    4 1
     2    1    6 2
     3    1    7 1
     4    2    4 1
     5    3    5 1
     6    5    7 1
     7    2    8 1
     8    2    9 1
     9    2   10 1
    10    3   11 1
    11    3   12 1
    12    3   13 1
    13    4   14 1
    14    4   15 1
    15    5   16 1
    16    5   17 1
