@<TRIPOS>MOLECULE
4-chloroaniline
   14    14     0     0     0
SMALL
USER_CHARGES

@<TRIPOS>ATOM
      1 C1          1.8851   -1.0363   -0.1124 C.ar      1 MOL        -0.1889
      2 C2          2.8783   -1.6520    2.0022 C.ar      1 MOL        -0.1889
      3 C3          0.8066   -0.4630    0.5610 C.ar      1 MOL        -0.0831
      4 C4          1.7997   -1.0786    2.6757 C.ar      1 MOL        -0.0831
      5 C5          2.9210   -1.6309    0.6081 C.ar      1 MOL         0.1501
      6 C6          0.7638   -0.4841    1.9551 C.ar      1 MOL        -0.0297
      7 N1          4.0101   -2.2121   -0.0736 N.pl3     1 MOL        -0.8271
      8 Cl1        -0.5670    0.2233    2.7855 Cl        1 MOL        -0.1024
      9 H1          1.9083   -1.0155   -1.1989 H         1 MOL         0.1354
     10 H2          3.6795   -2.1140    2.5734 H         1 MOL         0.1354
     11 H3          0.0058   -0.0049   -0.0139 H         1 MOL         0.1449
     12 H4          1.7794   -1.1044    3.7623 H         1 MOL         0.1449
     13 H5          4.0050   -2.2332   -1.0734 H         1 MOL         0.3963
     14 H6          4.7229   -2.6766    0.4521 H         1 MOL         0.3963
@<TRIPOS>BOND
     1    1    3 ar
     2    1    5 ar
     3    2    4 ar
     4    2    5 ar
     5    3    6 ar
     6    4    6 ar
     7    5    7 1
     8    6    8 1
     9    1    9 1
    10    2   10 1
    11    3   11 1
    12    4   12 1
    13    7   13 1
    14    7   14 1
