@<TRIPOS>MOLECULE
1-nitropentane
   19    18     0     0     0
SMALL
USER_CHARGES

@<TRIPOS>ATOM
      1 C1          0.0754   -0.7107    0.8665 C.3       1 MOL        -0.0943
      2 C2          1.3441   -0.4153    1.6505 C.3       1 MOL        -0.0798
      3 C3          2.5932   -0.6236    0.7946 C.3       1 MOL        -0.0780
      4 C4          3.8685   -0.3582    1.5969 C.3       1 MOL        -0.0939
      5 C5          5.1063   -0.5265    0.7269 C.3       1 MOL        -0.0769
      6 N1          6.2986   -0.2286    1.5243 N.pl3     1 MOL         0.2288
      7 O1          6.7262    0.9429    1.5247 O.3       1 MOL        -0.2102
      8 O2          6.8117   -1.1605    2.1750 O.2       1 MOL        -0.2102
      9 H1          0.0180   -0.0681   -0.0175 H         1 MOL         0.0365
     10 H2          0.0547   -1.7525    0.5313 H         1 MOL         0.0365
     11 H3         -0.8145   -0.5282    1.4773 H         1 MOL         0.0365
     12 H4          1.3826   -1.0681    2.5304 H         1 MOL         0.0444
     13 H5          1.3097    0.6183    2.0142 H         1 MOL         0.0444
     14 H6          2.5596    0.0455   -0.0739 H         1 MOL         0.0462
     15 H7          2.6081   -1.6512    0.4108 H         1 MOL         0.0462
     16 H8          3.9132   -1.0454    2.4521 H         1 MOL         0.0675
     17 H9          3.8352    0.6578    2.0119 H         1 MOL         0.0675
     18 H10         5.1049    0.1624   -0.1225 H         1 MOL         0.0944
     19 H11         5.2083   -1.5529    0.3627 H         1 MOL         0.0944
@<TRIPOS>BOND
     1    1    2 1
     2    2    3 1
     3    3    4 1
     4    4    5 1
     5    5    6 1
     6    6    7 1
     7    6    8 2
     8    1    9 1
     9    1   10 1
    10    1   11 1
    11    2   12 1
    12    2   13 1
    13    3   14 1
    14    3   15 1
    15    4   16 1
    16    4   17 1
    17    5   18 1
    18    5   19 1
