@<TRIPOS>MOLECULE
prop-1-ene
    9     8     0     0     0
SMALL
USER_CHARGES

@<TRIPOS>ATOM
      1 C1          0.8212   -0.6789   -0.2025 C.2       1 MOL        -0.2272
      2 C2          1.3491   -1.4450    0.7582 C.2       1 MOL        -0.1633
      3 C3          0.8797   -1.4501    2.1744 C.3       1 MOL        -0.0691
      4 H1          1.2086   -0.7222   -1.2145 H         1 MOL         0.1101
      5 H2          0.0000    0.0000    0.0000 H         1 MOL         0.1101
      6 H3          2.1710   -2.1092    0.5059 H         1 MOL         0.1167
      7 H4          1.4342   -0.7057    2.7538 H         1 MOL         0.0409
      8 H5          1.0159   -2.4253    2.6524 H         1 MOL         0.0409
      9 H6         -0.1838   -1.1958    2.2155 H         1 MOL         0.0409
@<TRIPOS>BOND
     1    1    2 2
     2    2    3 1
     3    1    4 1
     4    1    5 1
     5    2    6 1
     6    3    7 1
     7    3    8 1
     8    3    9 1
