@<TRIPOS>MOLECULE
2-methylbutan-2-ol
   18    17     0     0     0
SMALL
USER_CHARGES

@<TRIPOS>ATOM
      1 C1         -0.6454    0.3354    0.8029 C.3       1 MOL        -0.0891
      2 C2         -2.1689   -0.4444   -1.7717 C.3       1 MOL        -0.1234
      3 C3         -4.0814    0.9472   -0.9518 C.3       1 MOL        -0.1234
      4 C4         -1.8896    1.0450    0.2809 C.3       1 MOL        -0.0640
      5 C5         -2.8429    0.1483   -0.5334 C.3       1 MOL         0.1501
      6 O1         -3.2783   -0.9433    0.2800 O.3       1 MOL        -0.5981
      7 H1         -0.9363   -0.5295    1.4083 H         1 MOL         0.0376
      8 H2         -0.0456    0.9936    1.4379 H         1 MOL         0.0376
      9 H3         -0.0168   -0.0258   -0.0166 H         1 MOL         0.0376
     10 H4         -1.2780   -1.0231   -1.5075 H         1 MOL         0.0417
     11 H5         -2.8545   -1.0891   -2.3317 H         1 MOL         0.0417
     12 H6         -1.8702    0.3487   -2.4675 H         1 MOL         0.0417
     13 H7         -4.5890    1.3863   -0.0869 H         1 MOL         0.0417
     14 H8         -3.8108    1.7535   -1.6432 H         1 MOL         0.0417
     15 H9         -4.7957    0.3107   -1.4865 H         1 MOL         0.0417
     16 H10        -1.5798    1.9073   -0.3223 H         1 MOL         0.0441
     17 H11        -2.4272    1.4407    1.1525 H         1 MOL         0.0441
     18 H12        -3.8988   -1.4547   -0.2601 H         1 MOL         0.3968
@<TRIPOS>BOND
     1    1    4 1
     2    2    5 1
     3    3    5 1
     4    4    5 1
     5    5    6 1
     6    1    7 1
     7    1    8 1
     8    1    9 1
     9    2   10 1
    10    2   11 1
    11    2   12 1
    12    3   13 1
    13    3   14 1
    14    3   15 1
    15    4   16 1
    16    4   17 1
    17    6   18 1
