@<TRIPOS>MOLECULE
benzaldehyde
   14    14     0     0     0
SMALL
USER_CHARGES

@<TRIPOS>ATOM
      1 C1          1.8851   -1.0363   -0.1124 C.ar      1 MOL        -0.0988
      2 C2          0.8066   -0.4630    0.5610 C.ar      1 MOL        -0.1455
      3 C3          2.9210   -1.6309    0.6081 C.ar      1 MOL        -0.1455
      4 C4          0.7638   -0.4841    1.9551 C.ar      1 MOL        -0.0777
      5 C5          2.8783   -1.6520    2.0022 C.ar      1 MOL        -0.0777
      6 C6          1.7997   -1.0786    2.6757 C.ar      1 MOL        -0.1991
      7 C7          1.7551   -1.1006    4.1291 C.2       1 MOL         0.5754
      8 O1          2.6391   -1.6110    4.8228 O.2       1 MOL        -0.5292
      9 H1          1.9184   -1.0198   -1.1978 H         1 MOL         0.1348
     10 H2          0.0002    0.0000   -0.0002 H         1 MOL         0.1376
     11 H3          3.7607   -2.0775    0.0838 H         1 MOL         0.1376
     12 H4         -0.0814   -0.0344    2.4697 H         1 MOL         0.1444
     13 H5          3.6911   -2.1179    2.5534 H         1 MOL         0.1444
     14 H6          0.8755   -0.6311    4.6210 H         1 MOL        -0.0010
@<TRIPOS>BOND
     1    1    2 ar
     2    1    3 ar
     3    2    4 ar
     4    3    5 ar
     5    4    6 ar
     6    5    6 ar
     7    6    7 1
     8    7    8 2
     9    1    9 1
    10    2   10 1
    11    3   11 1
    12    4   12 1
    13    5   13 1
    14    7   14 1
