@<TRIPOS>MOLECULE
octanal
   25    24     0     0     0
SMALL
USER_CHARGES

@<TRIPOS>ATOM
      1 C1         -0.4797    4.3619    2.0731 C.2       1 MOL         0.5631
      2 C2          1.0303   -3.8171   -1.0869 C.3       1 MOL        -0.0919
      3 C3          0.4248    3.1793    1.8193 C.3       1 MOL        -0.1974
      4 C4          0.1028   -2.6355   -0.8516 C.3       1 MOL        -0.0803
      5 C5         -0.2691    2.0709    1.0328 C.3       1 MOL        -0.0746
      6 C6          0.8105   -1.5090   -0.0992 C.3       1 MOL        -0.0785
      7 C7          0.6050    0.8306    0.8299 C.3       1 MOL        -0.0778
      8 C8         -0.1160   -0.3081    0.1050 C.3       1 MOL        -0.0785
      9 O1         -1.6532    4.4325    1.7241 O.2       1 MOL        -0.5237
     10 H1         -0.0052    5.2027    2.6081 H         1 MOL        -0.0099
     11 H2          1.9157   -3.5139   -1.6547 H         1 MOL         0.0328
     12 H3          0.5136   -4.5973   -1.6546 H         1 MOL         0.0328
     13 H4          1.3620   -4.2507   -0.1380 H         1 MOL         0.0328
     14 H5          0.7557    2.8057    2.7942 H         1 MOL         0.0650
     15 H6          1.2997    3.5550    1.2796 H         1 MOL         0.0650
     16 H7         -0.7712   -2.9724   -0.2821 H         1 MOL         0.0387
     17 H8         -0.2617   -2.2668   -1.8175 H         1 MOL         0.0387
     18 H9         -0.5977    2.4553    0.0592 H         1 MOL         0.0532
     19 H10        -1.1789    1.7658    1.5654 H         1 MOL         0.0532
     20 H11         1.1553   -1.8779    0.8745 H         1 MOL         0.0386
     21 H12         1.7000   -1.1951   -0.6594 H         1 MOL         0.0386
     22 H13         1.5119    1.1060    0.2781 H         1 MOL         0.0380
     23 H14         0.9308    0.4774    1.8162 H         1 MOL         0.0380
     24 H15        -0.9938   -0.6164    0.6857 H         1 MOL         0.0419
     25 H16        -0.4759    0.0362   -0.8710 H         1 MOL         0.0419
@<TRIPOS>BOND
     1    1    3 1
     2    1    9 2
     3    2    4 1
     4    3    5 1
     5    4    6 1
     6    5    7 1
     7    6    8 1
     8    7    8 1
     9    1   10 1
    10    2   11 1
    11    2   12 1
    12    2   13 1
    13    3   14 1
    14    3   15 1
    15    4   16 1
    16    4   17 1
    17    5   18 1
    18    5   19 1
    19    6   20 1
    20    6   21 1
    21    7   22 1
    22    7   23 1
    23    8   24 1
    24    8   25 1
