@<TRIPOS>MOLECULE
hex-1-ene
   18    17     0     0     0
SMALL
USER_CHARGES

@<TRIPOS>ATOM
      1 C1          0.9435    0.3054    0.2521 C.2       1 MOL        -0.2261
      2 C2          1.1781    1.2378    1.1820 C.2       1 MOL        -0.1602
      3 C3         -1.0758    2.5855    5.4624 C.3       1 MOL        -0.0919
      4 C4          0.1112    2.0898    1.8034 C.3       1 MOL        -0.0540
      5 C5         -1.0224    2.7714    3.9544 C.3       1 MOL        -0.0822
      6 C6          0.0871    1.9285    3.3247 C.3       1 MOL        -0.0730
      7 H1          1.7608   -0.2749   -0.1620 H         1 MOL         0.1101
      8 H2         -0.0586    0.1042   -0.1098 H         1 MOL         0.1101
      9 H3          2.2021    1.4032    1.5071 H         1 MOL         0.1187
     10 H4         -0.1211    2.8551    5.9252 H         1 MOL         0.0320
     11 H5         -1.2894    1.5405    5.7081 H         1 MOL         0.0320
     12 H6         -1.8606    3.2060    5.9065 H         1 MOL         0.0320
     13 H7         -0.8739    1.8405    1.3905 H         1 MOL         0.0449
     14 H8          0.3087    3.1368    1.5441 H         1 MOL         0.0449
     15 H9         -1.9913    2.4934    3.5235 H         1 MOL         0.0416
     16 H10        -0.8584    3.8315    3.7284 H         1 MOL         0.0416
     17 H11         1.0559    2.2258    3.7459 H         1 MOL         0.0397
     18 H12        -0.0638    0.8726    3.5831 H         1 MOL         0.0397
@<TRIPOS>BOND
     1    1    2 2
     2    2    4 1
     3    3    5 1
     4    4    6 1
     5    5    6 1
     6    1    7 1
     7    1    8 1
     8    2    9 1
     9    3   10 1
    10    3   11 1
    11    3   12 1
    12    4   13 1
    13    4   14 1
    14    5   15 1
    15    5   16 1
    16    6   17 1
    17    6   18 1
