@<TRIPOS>MOLECULE
dimethoxymethane
   13    12     0     0     0
SMALL
USER_CHARGES

@<TRIPOS>ATOM
      1 C1          1.0116    0.1712    0.4206 C.3       1 MOL         0.1133
      2 C2          3.4841    1.7677   -1.8714 C.3       1 MOL         0.1133
      3 C3          2.7630    1.7603    0.3811 C.3       1 MOL         0.3181
      4 O1          1.3911    1.4995    0.0855 O.3       1 MOL        -0.3992
      5 O2          3.6773    1.2212   -0.5734 O.3       1 MOL        -0.3992
      6 H1         -0.0429    0.0203    0.1770 H         1 MOL         0.0376
      7 H2          1.1779    0.0020    1.4875 H         1 MOL         0.0376
      8 H3          1.6204   -0.5287   -0.1566 H         1 MOL         0.0376
      9 H4          4.2043    1.3260   -2.5644 H         1 MOL         0.0376
     10 H5          3.6157    2.8521   -1.8344 H         1 MOL         0.0376
     11 H6          2.4703    1.5369   -2.2070 H         1 MOL         0.0376
     12 H7          2.8986    2.8457    0.4467 H         1 MOL         0.0140
     13 H8          3.0117    1.3462    1.3648 H         1 MOL         0.0140
@<TRIPOS>BOND
     1    1    4 1
     2    2    5 1
     3    3    4 1
     4    3    5 1
     5    1    6 1
     6    1    7 1
     7    1    8 1
     8    2    9 1
     9    2   10 1
    10    2   11 1
    11    3   12 1
    12    3   13 1
