@<TRIPOS>MOLECULE
(2R,3R,4S,5S,6R)-6-(hydroxymethyl)tetrahydropyran-2,3,4,5-tetrol
   24    24     0     0     0
SMALL
USER_CHARGES

@<TRIPOS>ATOM
      1 C1         -1.4240   -1.4908   -0.6420 C.3       1 MOL         0.0770
      2 C2         -0.7391   -0.1332   -0.8004 C.3       1 MOL         0.0807
      3 C3         -0.4804   -2.6337   -1.0165 C.3       1 MOL         0.0902
      4 C4         -0.0643   -0.0218   -2.1696 C.3       1 MOL         0.1178
      5 C5          0.2035   -2.3731   -2.3586 C.3       1 MOL         0.3128
      6 C6          0.7314    1.2714   -2.3175 C.3       1 MOL         0.1373
      7 O1          0.8515   -1.1032   -2.3511 O.3       1 MOL        -0.4349
      8 O2         -1.8241   -1.6404    0.7212 O.3       1 MOL        -0.5713
      9 O3         -1.7290    0.8812   -0.6501 O.3       1 MOL        -0.5762
     10 O4         -1.2427   -3.8373   -1.0959 O.3       1 MOL        -0.5584
     11 O5          1.1656   -3.4063   -2.5667 O.3       1 MOL        -0.5763
     12 O6          1.3285    1.2888   -3.6013 O.3       1 MOL        -0.5956
     13 H1         -2.3429   -1.5299   -1.2405 H         1 MOL         0.0722
     14 H2         -0.0062   -0.0080    0.0071 H         1 MOL         0.0899
     15 H3          0.2643   -2.7781   -0.2236 H         1 MOL         0.1071
     16 H4         -0.8146   -0.0439   -2.9711 H         1 MOL         0.0560
     17 H5         -0.5186   -2.4258   -3.1832 H         1 MOL         0.0335
     18 H6          1.5109    1.3176   -1.5570 H         1 MOL         0.0466
     19 H7          0.0680    2.1303   -2.2170 H         1 MOL         0.0466
     20 H8         -1.0143   -1.5883    1.2504 H         1 MOL         0.4091
     21 H9         -2.3867    0.7305   -1.3466 H         1 MOL         0.4060
     22 H10        -1.9138   -3.6926   -1.7801 H         1 MOL         0.3981
     23 H11         1.5859   -3.2219   -3.4204 H         1 MOL         0.4264
     24 H12         1.8288    2.1196   -3.6722 H         1 MOL         0.4055
@<TRIPOS>BOND
     1    1    2 1
     2    1    3 1
     3    1    8 1
     4    2    4 1
     5    2    9 1
     6    3    5 1
     7    3   10 1
     8    4    6 1
     9    4    7 1
    10    5    7 1
    11    5   11 1
    12    6   12 1
    13    1   13 1
    14    2   14 1
    15    3   15 1
    16    4   16 1
    17    5   17 1
    18    6   18 1
    19    6   19 1
    20    8   20 1
    21    9   21 1
    22   10   22 1
    23   11   23 1
    24   12   24 1
