@<TRIPOS>MOLECULE
methylsulfanylbenzene
   16    16     0     0     0
SMALL
USER_CHARGES

@<TRIPOS>ATOM
      1 C1          1.8851   -1.0363   -0.1124 C.ar      1 MOL        -0.1133
      2 C2          0.8066   -0.4630    0.5610 C.ar      1 MOL        -0.1369
      3 C3          2.9210   -1.6309    0.6081 C.ar      1 MOL        -0.1369
      4 C4          0.7638   -0.4841    1.9551 C.ar      1 MOL        -0.0948
      5 C5          2.8783   -1.6520    2.0022 C.ar      1 MOL        -0.0948
      6 C6          1.7997   -1.0786    2.6757 C.ar      1 MOL        -0.0253
      7 C7          1.7018    0.6709    4.7834 C.3       1 MOL        -0.0518
      8 S1          1.7452   -1.1049    4.4568 S.3       1 MOL        -0.2226
      9 H1          1.9179   -1.0195   -1.1979 H         1 MOL         0.1328
     10 H2          0.0000    0.0003    0.0002 H         1 MOL         0.1338
     11 H3          3.7604   -2.0771    0.0830 H         1 MOL         0.1338
     12 H4         -0.0850   -0.0319    2.4622 H         1 MOL         0.1414
     13 H5          3.6951   -2.1197    2.5465 H         1 MOL         0.1414
     14 H6          1.6652    0.8500    5.8608 H         1 MOL         0.0645
     15 H7          0.8166    1.1122    4.3185 H         1 MOL         0.0645
     16 H8          2.5958    1.1459    4.3723 H         1 MOL         0.0645
@<TRIPOS>BOND
     1    1    2 ar
     2    1    3 ar
     3    2    4 ar
     4    3    5 ar
     5    4    6 ar
     6    5    6 ar
     7    6    8 1
     8    7    8 1
     9    1    9 1
    10    2   10 1
    11    3   11 1
    12    4   12 1
    13    5   13 1
    14    7   14 1
    15    7   15 1
    16    7   16 1
