@<TRIPOS>MOLECULE
bromobenzene
   12    12     0     0     0
SMALL
USER_CHARGES

@<TRIPOS>ATOM
      1 C1          1.8851   -1.0363   -0.1124 C.ar      1 MOL        -0.1173
      2 C2          0.8066   -0.4630    0.5610 C.ar      1 MOL        -0.1303
      3 C3          2.9210   -1.6309    0.6081 C.ar      1 MOL        -0.1303
      4 C4          0.7638   -0.4841    1.9551 C.ar      1 MOL        -0.1035
      5 C5          2.8783   -1.6520    2.0022 C.ar      1 MOL        -0.1035
      6 C6          1.7997   -1.0786    2.6757 C.ar      1 MOL        -0.0262
      7 Br1         1.7418   -1.1077    4.5643 Br        1 MOL        -0.0906
      8 H1          1.9183   -1.0201   -1.1979 H         1 MOL         0.1353
      9 H2          0.0001    0.0000   -0.0000 H         1 MOL         0.1374
     10 H3          3.7609   -2.0771    0.0838 H         1 MOL         0.1374
     11 H4         -0.0837   -0.0329    2.4644 H         1 MOL         0.1458
     12 H5          3.6935   -2.1192    2.5486 H         1 MOL         0.1458
@<TRIPOS>BOND
     1    1    2 ar
     2    1    3 ar
     3    2    4 ar
     4    3    5 ar
     5    4    6 ar
     6    5    6 ar
     7    6    7 1
     8    1    8 1
     9    2    9 1
    10    3   10 1
    11    4   11 1
    12    5   12 1
