@<TRIPOS>MOLECULE
2-[(1R)-1-methylpropyl]-4,6-dinitro-phenol
   29    29     0     0     0
SMALL
USER_CHARGES

@<TRIPOS>ATOM
      1 C1         -1.4490   -1.1642    0.9318 C.ar      1 MOL        -0.0202
      2 C2         -2.8331   -3.0732    1.4584 C.ar      1 MOL         0.0051
      3 C3         -1.6445   -0.6670    2.2202 C.ar      1 MOL        -0.0928
      4 C4         -2.0433   -2.3673    0.5508 C.ar      1 MOL        -0.2100
      5 C5         -3.0286   -2.5760    2.7469 C.ar      1 MOL        -0.2520
      6 C6         -2.4343   -1.3729    3.1278 C.ar      1 MOL         0.2171
      7 C7          1.1749   -0.4495    3.4328 C.3       1 MOL        -0.0961
      8 C8         -1.5313    1.7973    1.7615 C.3       1 MOL        -0.0929
      9 C9          0.5510    0.6070    2.5292 C.3       1 MOL        -0.0757
     10 C10        -0.9885    0.6449    2.6154 C.3       1 MOL        -0.0230
     11 N1         -1.8450   -2.8733   -0.7611 N.pl3     1 MOL         0.3226
     12 N2         -3.8376   -3.3096    3.6580 N.pl3     1 MOL         0.3009
     13 O1         -1.1315   -2.2226   -1.5622 O.3       1 MOL        -0.1990
     14 O2         -3.2960   -4.1693    4.3922 O.3       1 MOL        -0.1793
     15 O3         -2.3885   -3.9573   -1.0832 O.2       1 MOL        -0.1990
     16 O4         -5.0684   -3.0747    3.6998 O.2       1 MOL        -0.1793
     17 O5         -2.6213   -0.8801    4.3868 O.3       1 MOL        -0.4673
     18 H1         -0.8329   -0.6111    0.2259 H         1 MOL         0.1841
     19 H2         -3.2967   -4.0121    1.1607 H         1 MOL         0.1941
     20 H3          0.7546   -1.4342    3.2038 H         1 MOL         0.0382
     21 H4          2.2584   -0.5102    3.2932 H         1 MOL         0.0382
     22 H5          0.9731   -0.2329    4.4867 H         1 MOL         0.0382
     23 H6         -1.3100    1.6577    0.6978 H         1 MOL         0.0431
     24 H7         -2.6188    1.8761    1.8673 H         1 MOL         0.0431
     25 H8         -1.0959    2.7542    2.0712 H         1 MOL         0.0431
     26 H9          0.9824    1.5855    2.7715 H         1 MOL         0.0467
     27 H10         0.8451    0.3851    1.4955 H         1 MOL         0.0467
     28 H11        -1.2557    0.8701    3.6570 H         1 MOL         0.0815
     29 H12        -3.1891   -1.4776    4.8968 H         1 MOL         0.4441
@<TRIPOS>BOND
     1    1    3 ar
     2    1    4 ar
     3    2    4 ar
     4    2    5 ar
     5    3    6 ar
     6    3   10 1
     7    4   11 1
     8    5    6 ar
     9    5   12 1
    10    6   17 1
    11    7    9 1
    12    8   10 1
    13    9   10 1
    14   11   13 1
    15   11   15 2
    16   12   14 1
    17   12   16 2
    18    1   18 1
    19    2   19 1
    20    7   20 1
    21    7   21 1
    22    7   22 1
    23    8   23 1
    24    8   24 1
    25    8   25 1
    26    9   26 1
    27    9   27 1
    28   10   28 1
    29   17   29 1
