@<TRIPOS>MOLECULE
5-bromo-1H-pyrimidine-2,4-dione
   12    12     0     0     0
SMALL
USER_CHARGES

@<TRIPOS>ATOM
      1 C1          0.7469    1.3015   -0.1109 C.2       1 MOL         0.0811
      2 C2         -0.2265    0.9655    0.7428 C.2       1 MOL        -0.2459
      3 C3         -0.8159   -0.4016    0.6527 C.2       1 MOL         0.7278
      4 C4          0.7469   -0.8471   -1.2308 C.2       1 MOL         0.8032
      5 N1          1.2243    0.4429   -1.0629 N.am      1 MOL        -0.4653
      6 N2         -0.2702   -1.2046   -0.3427 N.am      1 MOL        -0.5835
      7 O1         -1.7123   -0.7774    1.4035 O.2       1 MOL        -0.5809
      8 O2          1.1809   -1.6156   -2.0894 O.2       1 MOL        -0.6262
      9 Br1        -0.8740    2.1363    2.0377 Br        1 MOL        -0.0029
     10 H1          1.2195    2.2773   -0.1039 H         1 MOL         0.1742
     11 H2          1.9647    0.7762   -1.6732 H         1 MOL         0.3599
     12 H3         -0.6471   -2.1440   -0.4327 H         1 MOL         0.3584
@<TRIPOS>BOND
     1    1    2 2
     2    1    5 1
     3    2    3 1
     4    2    9 1
     5    3    6 am
     6    3    7 2
     7    4    5 am
     8    4    6 am
     9    4    8 2
    10    1   10 1
    11    5   11 1
    12    6   12 1
