@<TRIPOS>MOLECULE
naphthalen-2-ol
   19    20     0     0     0
SMALL
USER_CHARGES

@<TRIPOS>ATOM
      1 C1         -0.4966   -2.0341    0.4940 C.ar      1 MOL        -0.1394
      2 C2          0.3500   -1.0275    0.0392 C.ar      1 MOL        -0.1162
      3 C3         -0.0479   -3.3542    0.5448 C.ar      1 MOL        -0.1054
      4 C4          1.6484   -1.3369   -0.3665 C.ar      1 MOL        -0.1290
      5 C5          1.7243   -5.0072    0.1848 C.ar      1 MOL        -0.0883
      6 C6          3.0228   -5.3167   -0.2210 C.ar      1 MOL        -0.1409
      7 C7          3.4207   -2.9899   -0.7267 C.ar      1 MOL        -0.2197
      8 C8          1.2560   -3.6839    0.1403 C.ar      1 MOL        -0.0650
      9 C9          2.1168   -2.6602   -0.3222 C.ar      1 MOL         0.0008
     10 C10         3.8693   -4.3100   -0.6758 C.ar      1 MOL         0.1305
     11 O1          5.1358   -4.6136   -1.0711 O.3       1 MOL        -0.4984
     12 H1         -1.5074   -1.7925    0.8090 H         1 MOL         0.1318
     13 H2          0.0004    0.0003    0.0001 H         1 MOL         0.1320
     14 H3         -0.7263   -4.1256    0.9032 H         1 MOL         0.1319
     15 H4          2.2925   -0.5339   -0.7191 H         1 MOL         0.1322
     16 H5          1.0796   -5.8103    0.5361 H         1 MOL         0.1363
     17 H6          3.3668   -6.3466   -0.1799 H         1 MOL         0.1522
     18 H7          4.0955   -2.2144   -1.0847 H         1 MOL         0.1353
     19 H8          5.5995   -3.8114   -1.3597 H         1 MOL         0.4195
@<TRIPOS>BOND
     1    1    2 ar
     2    1    3 ar
     3    2    4 ar
     4    3    8 ar
     5    4    9 ar
     6    5    6 ar
     7    5    8 ar
     8    6   10 ar
     9    7    9 ar
    10    7   10 ar
    11    8    9 ar
    12   10   11 1
    13    1   12 1
    14    2   13 1
    15    3   14 1
    16    4   15 1
    17    5   16 1
    18    6   17 1
    19    7   18 1
    20   11   19 1
