@<TRIPOS>MOLECULE
2-bromopropane
   11    10     0     0     0
SMALL
USER_CHARGES

@<TRIPOS>ATOM
      1 C1         -0.2496   -0.5656   -1.1352 C.3       1 MOL        -0.0960
      2 C2          0.2101    1.0085    0.7808 C.3       1 MOL        -0.0960
      3 C3         -0.1530   -0.4084    0.3724 C.3       1 MOL         0.0213
      4 Br1         1.2148   -1.6327    1.0501 Br        1 MOL        -0.1945
      5 H1          0.6818   -0.2612   -1.6252 H         1 MOL         0.0483
      6 H2         -0.4402   -1.6104   -1.4022 H         1 MOL         0.0483
      7 H3         -1.0590    0.0422   -1.5549 H         1 MOL         0.0483
      8 H4          1.1461    1.3283    0.3096 H         1 MOL         0.0483
      9 H5          0.3438    1.0748    1.8656 H         1 MOL         0.0483
     10 H6         -0.5677    1.7247    0.4929 H         1 MOL         0.0483
     11 H7         -1.0890   -0.7156    0.8493 H         1 MOL         0.0754
@<TRIPOS>BOND
     1    1    3 1
     2    2    3 1
     3    3    4 1
     4    1    5 1
     5    1    6 1
     6    1    7 1
     7    2    8 1
     8    2    9 1
     9    2   10 1
    10    3   11 1
