@<TRIPOS>MOLECULE
phenyl formate
   15    15     0     0     0
SMALL
USER_CHARGES

@<TRIPOS>ATOM
      1 C1          1.8851   -1.0363   -0.1124 C.ar      1 MOL        -0.1294
      2 C2          0.8066   -0.4630    0.5610 C.ar      1 MOL        -0.1180
      3 C3          2.9210   -1.6309    0.6081 C.ar      1 MOL        -0.1180
      4 C4          0.7638   -0.4841    1.9551 C.ar      1 MOL        -0.1355
      5 C5          2.8783   -1.6520    2.0022 C.ar      1 MOL        -0.1355
      6 C6          1.7997   -1.0786    2.6757 C.ar      1 MOL         0.0734
      7 C7          1.1239   -2.2259    4.5638 C.2       1 MOL         0.6261
      8 O1          0.6262   -3.1500    3.9397 O.2       1 MOL        -0.4764
      9 O2          1.7593   -1.0981    4.0359 O.3       1 MOL        -0.3553
     10 H1          1.9184   -1.0206   -1.1979 H         1 MOL         0.1374
     11 H2         -0.0001    0.0001    0.0001 H         1 MOL         0.1398
     12 H3          3.7605   -2.0773    0.0830 H         1 MOL         0.1398
     13 H4         -0.0785   -0.0345    2.4737 H         1 MOL         0.1504
     14 H5          3.6889   -2.1149    2.5584 H         1 MOL         0.1504
     15 H6          1.1385   -2.1582    5.6635 H         1 MOL         0.0510
@<TRIPOS>BOND
     1    1    2 ar
     2    1    3 ar
     3    2    4 ar
     4    3    5 ar
     5    4    6 ar
     6    5    6 ar
     7    6    9 1
     8    7    8 2
     9    7    9 1
    10    1   10 1
    11    2   11 1
    12    3   12 1
    13    4   13 1
    14    5   14 1
    15    7   15 1
