@<TRIPOS>MOLECULE
2-methylbenzaldehyde
   17    17     0     0     0
SMALL
USER_CHARGES

@<TRIPOS>ATOM
      1 C1          1.8851   -1.0363   -0.1124 C.ar      1 MOL        -0.1481
      2 C2          0.8066   -0.4630    0.5610 C.ar      1 MOL        -0.0984
      3 C3          2.9210   -1.6309    0.6081 C.ar      1 MOL        -0.0896
      4 C4          0.7638   -0.4841    1.9551 C.ar      1 MOL        -0.1469
      5 C5          2.8783   -1.6520    2.0022 C.ar      1 MOL        -0.1950
      6 C6          1.7997   -1.0786    2.6757 C.ar      1 MOL        -0.0130
      7 C7          3.9735   -2.2786    2.7300 C.2       1 MOL         0.5774
      8 C8          1.7287   -1.0866    4.1677 C.3       1 MOL        -0.0660
      9 O1          5.1301   -2.3122    2.3045 O.2       1 MOL        -0.5256
     10 H1          1.9188   -1.0203   -1.1981 H         1 MOL         0.1354
     11 H2          0.0004    0.0000   -0.0006 H         1 MOL         0.1349
     12 H3          3.7565   -2.0732    0.0716 H         1 MOL         0.1333
     13 H4         -0.0813   -0.0350    2.4700 H         1 MOL         0.1377
     14 H5          3.7340   -2.7418    3.7107 H         1 MOL        -0.0036
     15 H6          1.2140   -1.9886    4.5184 H         1 MOL         0.0558
     16 H7          2.7312   -1.0608    4.6121 H         1 MOL         0.0558
     17 H8          1.1900   -0.2079    4.5433 H         1 MOL         0.0558
@<TRIPOS>BOND
     1    1    2 ar
     2    1    3 ar
     3    2    4 ar
     4    3    5 ar
     5    4    6 ar
     6    5    6 ar
     7    5    7 1
     8    6    8 1
     9    7    9 2
    10    1   10 1
    11    2   11 1
    12    3   12 1
    13    4   13 1
    14    7   14 1
    15    8   15 1
    16    8   16 1
    17    8   17 1
