@<TRIPOS>MOLECULE
1-chloroheptane
   23    22     0     0     0
SMALL
USER_CHARGES

@<TRIPOS>ATOM
      1 C1         -3.6198    0.6183    0.4868 C.3       1 MOL        -0.0926
      2 C2         -2.1408    0.7423    0.8161 C.3       1 MOL        -0.0798
      3 C3         -1.2698    0.1231   -0.2770 C.3       1 MOL        -0.0787
      4 C4          0.2167    0.2192    0.0740 C.3       1 MOL        -0.0780
      5 C5          1.0874   -0.3672   -1.0397 C.3       1 MOL        -0.0799
      6 C6          2.5870   -0.3083   -0.7339 C.3       1 MOL        -0.0921
      7 C7          3.4469   -0.9181   -1.8337 C.3       1 MOL         0.0391
      8 Cl1         5.1686   -0.8368   -1.3881 Cl        1 MOL        -0.2004
      9 H1         -3.8379    1.1064   -0.4683 H         1 MOL         0.0333
     10 H2         -3.9172   -0.4321    0.4073 H         1 MOL         0.0333
     11 H3         -4.2345    1.0920    1.2588 H         1 MOL         0.0333
     12 H4         -1.9432    0.2482    1.7744 H         1 MOL         0.0391
     13 H5         -1.8873    1.8017    0.9388 H         1 MOL         0.0391
     14 H6         -1.4570    0.6347   -1.2290 H         1 MOL         0.0394
     15 H7         -1.5467   -0.9293   -0.4156 H         1 MOL         0.0394
     16 H8          0.3977   -0.3150    1.0134 H         1 MOL         0.0415
     17 H9          0.4877    1.2691    0.2385 H         1 MOL         0.0415
     18 H10         0.9058    0.1904   -1.9671 H         1 MOL         0.0415
     19 H11         0.7924   -1.4058   -1.2331 H         1 MOL         0.0415
     20 H12         2.8643    0.7450   -0.5983 H         1 MOL         0.0563
     21 H13         2.7855   -0.8120    0.2203 H         1 MOL         0.0563
     22 H14         3.2069   -1.9719   -1.9968 H         1 MOL         0.0635
     23 H15         3.3230   -0.3791   -2.7775 H         1 MOL         0.0635
@<TRIPOS>BOND
     1    1    2 1
     2    2    3 1
     3    3    4 1
     4    4    5 1
     5    5    6 1
     6    6    7 1
     7    7    8 1
     8    1    9 1
     9    1   10 1
    10    1   11 1
    11    2   12 1
    12    2   13 1
    13    3   14 1
    14    3   15 1
    15    4   16 1
    16    4   17 1
    17    5   18 1
    18    5   19 1
    19    6   20 1
    20    6   21 1
    21    7   22 1
    22    7   23 1
