@<TRIPOS>MOLECULE
methylsulfonylmethane
   11    10     0     0     0
SMALL
USER_CHARGES

@<TRIPOS>ATOM
      1 C1          1.0616    0.2382    0.0927 C.3       1 MOL        -0.3706
      2 C2          3.0251    1.5695    1.5420 C.3       1 MOL        -0.3706
      3 O1          0.9469    0.4790    2.6930 O.2       1 MOL        -0.6555
      4 O2          0.6108    2.5316    1.2629 O.2       1 MOL        -0.6555
      5 S1          1.2749    1.2694    1.5227 S.o2      1 MOL         1.3549
      6 H1          0.0017   -0.0023   -0.0034 H         1 MOL         0.1162
      7 H2          1.4100    0.7877   -0.7831 H         1 MOL         0.1162
      8 H3          1.6489   -0.6705    0.2329 H         1 MOL         0.1162
      9 H4          3.2562    2.2043    2.3989 H         1 MOL         0.1162
     10 H5          3.5380    0.6103    1.6274 H         1 MOL         0.1162
     11 H6          3.2991    2.0686    0.6114 H         1 MOL         0.1162
@<TRIPOS>BOND
     1    1    5 1
     2    2    5 1
     3    3    5 2
     4    4    5 2
     5    1    6 1
     6    1    7 1
     7    1    8 1
     8    2    9 1
     9    2   10 1
    10    2   11 1
