@<TRIPOS>MOLECULE
S-propyl N,N-dipropylcarbamothioate
   34    33     0     0     0
SMALL
USER_CHARGES

@<TRIPOS>ATOM
      1 C1         -0.8334   -1.5092    2.5449 C.2       1 MOL         0.6910
      2 C2          0.6422   -0.0861   -1.6898 C.3       1 MOL        -0.0925
      3 C3         -3.7186    2.1948    2.7456 C.3       1 MOL        -0.0925
      4 C4          0.8320   -6.3045    3.9551 C.3       1 MOL        -0.0920
      5 C5          0.4471   -0.0425   -0.1808 C.3       1 MOL        -0.1046
      6 C6         -3.1699    0.8656    2.2466 C.3       1 MOL        -0.1046
      7 C7          0.6336   -5.3821    2.7612 C.3       1 MOL        -0.0736
      8 C8         -0.9439   -0.4951    0.2466 C.3       1 MOL         0.0978
      9 C9         -1.6470    0.8388    2.1958 C.3       1 MOL         0.0978
     10 C10         0.0370   -4.0470    3.1923 C.3       1 MOL         0.0044
     11 N1         -1.1302   -0.4301    1.6971 N.am      1 MOL        -0.4659
     12 O1         -0.9795   -1.4838    3.7650 O.2       1 MOL        -0.5964
     13 S1         -0.1872   -2.9635    1.7647 S.3       1 MOL        -0.2859
     14 H1          0.4919   -1.0995   -2.0754 H         1 MOL         0.0354
     15 H2         -0.0796    0.5737   -2.1820 H         1 MOL         0.0354
     16 H3          1.6462    0.2451   -1.9721 H         1 MOL         0.0354
     17 H4         -3.3509    2.4177    3.7523 H         1 MOL         0.0354
     18 H5         -3.4014    3.0059    2.0823 H         1 MOL         0.0354
     19 H6         -4.8126    2.1907    2.7709 H         1 MOL         0.0354
     20 H7          1.4856   -5.8436    4.7027 H         1 MOL         0.0378
     21 H8         -0.1297   -6.5200    4.4314 H         1 MOL         0.0378
     22 H9          1.2789   -7.2551    3.6465 H         1 MOL         0.0378
     23 H10         0.6060    0.9861    0.1633 H         1 MOL         0.0526
     24 H11         1.2101   -0.6667    0.2991 H         1 MOL         0.0526
     25 H12        -3.5610    0.6812    1.2393 H         1 MOL         0.0526
     26 H13        -3.5393    0.0589    2.8908 H         1 MOL         0.0526
     27 H14        -0.0246   -5.8792    2.0383 H         1 MOL         0.0524
     28 H15         1.6025   -5.2274    2.2714 H         1 MOL         0.0524
     29 H16        -1.7030    0.1529   -0.2028 H         1 MOL         0.0545
     30 H17        -1.1423   -1.5235   -0.0712 H         1 MOL         0.0545
     31 H18        -1.2810    1.6201    1.5223 H         1 MOL         0.0545
     32 H19        -1.2133    1.0117    3.1858 H         1 MOL         0.0545
     33 H20        -0.9362   -4.1951    3.6713 H         1 MOL         0.0785
     34 H21         0.6937   -3.5439    3.9093 H         1 MOL         0.0785
@<TRIPOS>BOND
     1    1   11 am
     2    1   12 2
     3    1   13 1
     4    2    5 1
     5    3    6 1
     6    4    7 1
     7    5    8 1
     8    6    9 1
     9    7   10 1
    10    8   11 1
    11    9   11 1
    12   10   13 1
    13    2   14 1
    14    2   15 1
    15    2   16 1
    16    3   17 1
    17    3   18 1
    18    3   19 1
    19    4   20 1
    20    4   21 1
    21    4   22 1
    22    5   23 1
    23    5   24 1
    24    6   25 1
    25    6   26 1
    26    7   27 1
    27    7   28 1
    28    8   29 1
    29    8   30 1
    30    9   31 1
    31    9   32 1
    32   10   33 1
    33   10   34 1
