@<TRIPOS>MOLECULE
N,N-dimethylformamide
   12    11     0     0     0
SMALL
USER_CHARGES

@<TRIPOS>ATOM
      1 C1          2.8181   -1.4424    0.2525 C.2       1 MOL         0.6596
      2 C2          0.9276   -0.0771   -0.5743 C.3       1 MOL         0.0822
      3 C3          0.7832   -2.5563   -0.6072 C.3       1 MOL         0.0822
      4 N1          1.5475   -1.3611   -0.2934 N.am      1 MOL        -0.4979
      5 O1          3.4459   -2.4573    0.5336 O.2       1 MOL        -0.6010
      6 H1          3.2559   -0.4462    0.4290 H         1 MOL         0.0285
      7 H2          1.1719    0.2439   -1.5903 H         1 MOL         0.0411
      8 H3          1.2874    0.6784    0.1295 H         1 MOL         0.0411
      9 H4         -0.1591   -0.1535   -0.4811 H         1 MOL         0.0411
     10 H5          0.1810   -2.8543    0.2550 H         1 MOL         0.0411
     11 H6          1.4561   -3.3779   -0.8673 H         1 MOL         0.0411
     12 H7          0.1171   -2.3677   -1.4534 H         1 MOL         0.0411
@<TRIPOS>BOND
     1    1    4 am
     2    1    5 2
     3    2    4 1
     4    3    4 1
     5    1    6 1
     6    2    7 1
     7    2    8 1
     8    2    9 1
     9    3   10 1
    10    3   11 1
    11    3   12 1
