@<TRIPOS>MOLECULE
naphthalene
   18    19     0     0     0
SMALL
USER_CHARGES

@<TRIPOS>ATOM
      1 C1         -0.4966   -2.0341    0.4940 C.ar      1 MOL        -0.1275
      2 C2          0.3500   -1.0275    0.0392 C.ar      1 MOL        -0.1274
      3 C3          3.0228   -5.3167   -0.2210 C.ar      1 MOL        -0.1274
      4 C4          3.8693   -4.3100   -0.6758 C.ar      1 MOL        -0.1274
      5 C5         -0.0479   -3.3542    0.5448 C.ar      1 MOL        -0.1177
      6 C6          1.6484   -1.3369   -0.3665 C.ar      1 MOL        -0.1177
      7 C7          1.7243   -5.0072    0.1848 C.ar      1 MOL        -0.1177
      8 C8          3.4207   -2.9899   -0.7267 C.ar      1 MOL        -0.1177
      9 C9          1.2560   -3.6839    0.1403 C.ar      1 MOL        -0.0369
     10 C10         2.1168   -2.6602   -0.3222 C.ar      1 MOL        -0.0369
     11 H1         -1.5075   -1.7927    0.8092 H         1 MOL         0.1319
     12 H2         -0.0002   -0.0001    0.0003 H         1 MOL         0.1319
     13 H3          3.3725   -6.3445   -0.1817 H         1 MOL         0.1319
     14 H4          4.8796   -4.5522   -0.9922 H         1 MOL         0.1319
     15 H5         -0.7271   -4.1249    0.9034 H         1 MOL         0.1317
     16 H6          2.2931   -0.5340   -0.7180 H         1 MOL         0.1317
     17 H7          1.0801   -5.8101    0.5370 H         1 MOL         0.1317
     18 H8          4.0995   -2.2191   -1.0860 H         1 MOL         0.1317
@<TRIPOS>BOND
     1    1    2 ar
     2    1    5 ar
     3    2    6 ar
     4    3    4 ar
     5    3    7 ar
     6    4    8 ar
     7    5    9 ar
     8    6   10 ar
     9    7    9 ar
    10    8   10 ar
    11    9   10 ar
    12    1   11 1
    13    2   12 1
    14    3   13 1
    15    4   14 1
    16    5   15 1
    17    6   16 1
    18    7   17 1
    19    8   18 1
