@<TRIPOS>MOLECULE
1-nitrobutane
   16    15     0     0     0
SMALL
USER_CHARGES

@<TRIPOS>ATOM
      1 C1         -0.5191    0.9399   -0.2129 C.3       1 MOL        -0.0954
      2 C2         -1.0731    1.5381    1.0709 C.3       1 MOL        -0.0777
      3 C3         -1.7896    2.8637    0.8059 C.3       1 MOL        -0.0954
      4 C4         -2.3977    3.4556    2.0694 C.3       1 MOL        -0.0767
      5 N1         -3.0738    4.7119    1.7445 N.pl3     1 MOL         0.2289
      6 O1         -2.4247    5.7728    1.8462 O.3       1 MOL        -0.2103
      7 O2         -4.2611    4.6548    1.3646 O.2       1 MOL        -0.2103
      8 H1          0.1805    1.6293   -0.6963 H         1 MOL         0.0402
      9 H2          0.0152    0.0091    0.0022 H         1 MOL         0.0402
     10 H3         -1.3237    0.7141   -0.9201 H         1 MOL         0.0402
     11 H4         -1.7681    0.8248    1.5288 H         1 MOL         0.0457
     12 H5         -0.2493    1.6878    1.7778 H         1 MOL         0.0457
     13 H6         -1.0855    3.5797    0.3650 H         1 MOL         0.0681
     14 H7         -2.5894    2.7018    0.0734 H         1 MOL         0.0681
     15 H8         -1.6366    3.6540    2.8302 H         1 MOL         0.0944
     16 H9         -3.1411    2.7732    2.4925 H         1 MOL         0.0944
@<TRIPOS>BOND
     1    1    2 1
     2    2    3 1
     3    3    4 1
     4    4    5 1
     5    5    6 1
     6    5    7 2
     7    1    8 1
     8    1    9 1
     9    1   10 1
    10    2   11 1
    11    2   12 1
    12    3   13 1
    13    3   14 1
    14    4   15 1
    15    4   16 1
