@<TRIPOS>MOLECULE
1,4-dichlorobenzene
   12    12     0     0     0
SMALL
USER_CHARGES

@<TRIPOS>ATOM
      1 C1          1.8851   -1.0363   -0.1124 C.ar      1 MOL        -0.1166
      2 C2          0.8066   -0.4630    0.5610 C.ar      1 MOL        -0.1165
      3 C3          2.8783   -1.6520    2.0022 C.ar      1 MOL        -0.1165
      4 C4          1.7997   -1.0786    2.6757 C.ar      1 MOL        -0.1165
      5 C5          2.9210   -1.6309    0.6081 C.ar      1 MOL         0.0157
      6 C6          0.7638   -0.4841    1.9551 C.ar      1 MOL         0.0157
      7 Cl1         4.2520   -2.3377   -0.2226 Cl        1 MOL        -0.0872
      8 Cl2        -0.5669    0.2233    2.7858 Cl        1 MOL        -0.0872
      9 H1          1.9055   -1.0130   -1.1988 H         1 MOL         0.1523
     10 H2          0.0064   -0.0030   -0.0130 H         1 MOL         0.1523
     11 H3          3.6785   -2.1118    2.5762 H         1 MOL         0.1523
     12 H4          1.7792   -1.1023    3.7621 H         1 MOL         0.1523
@<TRIPOS>BOND
     1    1    2 ar
     2    1    5 ar
     3    2    6 ar
     4    3    4 ar
     5    3    5 ar
     6    4    6 ar
     7    5    7 1
     8    6    8 1
     9    1    9 1
    10    2   10 1
    11    3   11 1
    12    4   12 1
