@<TRIPOS>MOLECULE
1,4-dibromobenzene
   12    12     0     0     0
SMALL
USER_CHARGES

@<TRIPOS>ATOM
      1 C1          1.8851   -1.0363   -0.1124 C.ar      1 MOL        -0.1044
      2 C2          0.8066   -0.4630    0.5610 C.ar      1 MOL        -0.1043
      3 C3          2.8783   -1.6520    2.0022 C.ar      1 MOL        -0.1043
      4 C4          1.7997   -1.0786    2.6757 C.ar      1 MOL        -0.1043
      5 C5          2.9210   -1.6309    0.6081 C.ar      1 MOL        -0.0169
      6 C6          0.7638   -0.4841    1.9551 C.ar      1 MOL        -0.0169
      7 Br1         4.3828   -2.4071   -0.3042 Br        1 MOL        -0.0785
      8 Br2        -0.6976    0.2928    2.8674 Br        1 MOL        -0.0785
      9 H1          1.9036   -1.0119   -1.1988 H         1 MOL         0.1521
     10 H2          0.0074   -0.0036   -0.0148 H         1 MOL         0.1521
     11 H3          3.6775   -2.1113    2.5780 H         1 MOL         0.1521
     12 H4          1.7810   -1.1033    3.7621 H         1 MOL         0.1521
@<TRIPOS>BOND
     1    1    2 ar
     2    1    5 ar
     3    2    6 ar
     4    3    4 ar
     5    3    5 ar
     6    4    6 ar
     7    5    7 1
     8    6    8 1
     9    1    9 1
    10    2   10 1
    11    3   11 1
    12    4   12 1
