@<TRIPOS>MOLECULE
ethoxybenzene
   19    19     0     0     0
SMALL
USER_CHARGES

@<TRIPOS>ATOM
      1 C1          1.8851   -1.0363   -0.1124 C.ar      1 MOL        -0.1585
      2 C2          0.8066   -0.4630    0.5610 C.ar      1 MOL        -0.1045
      3 C3          2.9210   -1.6309    0.6081 C.ar      1 MOL        -0.1045
      4 C4          0.7638   -0.4841    1.9551 C.ar      1 MOL        -0.1714
      5 C5          2.8783   -1.6520    2.0022 C.ar      1 MOL        -0.1714
      6 C6          1.7997   -1.0786    2.6757 C.ar      1 MOL         0.1185
      7 C7          1.7127    0.2141    6.0386 C.3       1 MOL        -0.1334
      8 C8          1.0845   -0.0191    4.6811 C.3       1 MOL         0.1297
      9 O1          1.7593   -1.0981    4.0359 O.3       1 MOL        -0.3349
     10 H1          1.9184   -1.0206   -1.1979 H         1 MOL         0.1337
     11 H2         -0.0001    0.0001    0.0001 H         1 MOL         0.1306
     12 H3          3.7605   -2.0773    0.0830 H         1 MOL         0.1306
     13 H4         -0.0785   -0.0345    2.4737 H         1 MOL         0.1423
     14 H5          3.6889   -2.1149    2.5584 H         1 MOL         0.1423
     15 H6          1.6263   -0.6769    6.6667 H         1 MOL         0.0488
     16 H7          2.7717    0.4722    5.9347 H         1 MOL         0.0488
     17 H8          1.2290    1.0539    6.5484 H         1 MOL         0.0488
     18 H9          1.1743    0.8757    4.0579 H         1 MOL         0.0523
     19 H10         0.0267   -0.2776    4.7867 H         1 MOL         0.0523
@<TRIPOS>BOND
     1    1    2 ar
     2    1    3 ar
     3    2    4 ar
     4    3    5 ar
     5    4    6 ar
     6    5    6 ar
     7    6    9 1
     8    7    8 1
     9    8    9 1
    10    1   10 1
    11    2   11 1
    12    3   12 1
    13    4   13 1
    14    5   14 1
    15    7   15 1
    16    7   16 1
    17    7   17 1
    18    8   18 1
    19    8   19 1
