@<TRIPOS>MOLECULE
2,2,4-trimethylpentane
   26    25     0     0     0
SMALL
USER_CHARGES

@<TRIPOS>ATOM
      1 C1          1.1328    0.2376    1.9041 C.3       1 MOL        -0.0933
      2 C2         -0.3983    2.1927    1.7105 C.3       1 MOL        -0.0933
      3 C3         -1.1457   -2.1557   -0.7558 C.3       1 MOL        -0.0864
      4 C4          0.1163   -0.4625   -2.0859 C.3       1 MOL        -0.0864
      5 C5          1.1888   -1.5254   -0.0998 C.3       1 MOL        -0.0864
      6 C6         -0.7192    0.1699    0.1915 C.3       1 MOL        -0.0636
      7 C7          0.2970    1.0738    0.9283 C.3       1 MOL        -0.0610
      8 C8         -0.1380   -0.9954   -0.6605 C.3       1 MOL        -0.0505
      9 H1          0.4930   -0.2503    2.6472 H         1 MOL         0.0327
     10 H2          1.6978   -0.5402    1.3791 H         1 MOL         0.0327
     11 H3          1.8451    0.8699    2.4450 H         1 MOL         0.0327
     12 H4         -1.1065    1.7856    2.4407 H         1 MOL         0.0327
     13 H5          0.3362    2.7938    2.2576 H         1 MOL         0.0327
     14 H6         -0.9481    2.8695    1.0526 H         1 MOL         0.0327
     15 H7         -1.3728   -2.5833    0.2255 H         1 MOL         0.0335
     16 H8         -0.7525   -2.9678   -1.3783 H         1 MOL         0.0335
     17 H9         -2.0894   -1.8239   -1.2033 H         1 MOL         0.0335
     18 H10         0.8302    0.3689   -2.0757 H         1 MOL         0.0335
     19 H11        -0.8109   -0.1017   -2.5454 H         1 MOL         0.0335
     20 H12         0.5264   -1.2437   -2.7361 H         1 MOL         0.0335
     21 H13         1.9307   -0.7224   -0.0188 H         1 MOL         0.0335
     22 H14         1.6220   -2.2960   -0.7456 H         1 MOL         0.0335
     23 H15         1.0534   -1.9502    0.9008 H         1 MOL         0.0335
     24 H16        -1.3995   -0.2775    0.9300 H         1 MOL         0.0377
     25 H17        -1.3573    0.7976   -0.4456 H         1 MOL         0.0377
     26 H18         0.9903    1.5322    0.2161 H         1 MOL         0.0485
@<TRIPOS>BOND
     1    1    7 1
     2    2    7 1
     3    3    8 1
     4    4    8 1
     5    5    8 1
     6    6    7 1
     7    6    8 1
     8    1    9 1
     9    1   10 1
    10    1   11 1
    11    2   12 1
    12    2   13 1
    13    2   14 1
    14    3   15 1
    15    3   16 1
    16    3   17 1
    17    4   18 1
    18    4   19 1
    19    4   20 1
    20    5   21 1
    21    5   22 1
    22    5   23 1
    23    6   24 1
    24    6   25 1
    25    7   26 1
