@<TRIPOS>MOLECULE
1-(dioxidoamino)oxyhexane
   23    22     0     0     0
SMALL
USER_CHARGES

@<TRIPOS>ATOM
      1 C1          1.7833   -1.3584    0.9178 C.3       1 MOL        -0.0857
      2 C2          1.1442   -1.8866    2.1933 C.3       1 MOL        -0.0820
      3 C3         -0.1230   -1.1065    2.5457 C.3       1 MOL        -0.0822
      4 C4         -0.7660   -1.5523    3.8620 C.3       1 MOL        -0.0556
      5 C5         -2.0456   -0.7898    4.2020 C.3       1 MOL        -0.1678
      6 C6         -2.6297   -1.2442    5.5331 C.3       1 MOL         0.3538
      7 N1         -4.4531   -0.8598    7.0122 N.3       1 MOL        -0.0348
      8 O1         -5.4840   -0.2182    7.2186 O.3       1 MOL        -0.4725
      9 O2         -3.9185   -1.7303    7.7032 O.3       1 MOL        -0.4725
     10 O3         -3.8211   -0.5123    5.7858 O.3       1 MOL        -0.8375
     11 H1          1.0759   -1.4224    0.0850 H         1 MOL         0.0143
     12 H2          2.0797   -0.3109    1.0323 H         1 MOL         0.0143
     13 H3          2.6719   -1.9406    0.6536 H         1 MOL         0.0143
     14 H4          1.8672   -1.8141    3.0137 H         1 MOL         0.0268
     15 H5          0.9125   -2.9479    2.0545 H         1 MOL         0.0268
     16 H6         -0.8521   -1.1958    1.7312 H         1 MOL         0.0292
     17 H7          0.1252   -0.0410    2.6309 H         1 MOL         0.0292
     18 H8         -0.0356   -1.4015    4.6668 H         1 MOL         0.0134
     19 H9         -0.9747   -2.6284    3.8233 H         1 MOL         0.0134
     20 H10        -2.8003   -0.9283    3.4193 H         1 MOL         0.0234
     21 H11        -1.8465    0.2883    4.2424 H         1 MOL         0.0234
     22 H12        -2.8747   -2.3107    5.5080 H         1 MOL        -0.1458
     23 H13        -1.9274   -1.0587    6.3521 H         1 MOL        -0.1458
@<TRIPOS>BOND
     1    1    2 1
     2    2    3 1
     3    3    4 1
     4    4    5 1
     5    5    6 1
     6    6   10 1
     7    7    8 1
     8    7    9 1
     9    7   10 1
    10    1   11 1
    11    1   12 1
    12    1   13 1
    13    2   14 1
    14    2   15 1
    15    3   16 1
    16    3   17 1
    17    4   18 1
    18    4   19 1
    19    5   20 1
    20    5   21 1
    21    6   22 1
    22    6   23 1
