@<TRIPOS>MOLECULE
penta-1,4-diene
   13    12     0     0     0
SMALL
USER_CHARGES

@<TRIPOS>ATOM
      1 C1          1.3381   -0.0881   -1.7943 C.2       1 MOL        -0.2231
      2 C2         -1.7364    0.8447    1.1349 C.2       1 MOL        -0.2231
      3 C3          1.2056   -0.3034   -0.4805 C.2       1 MOL        -0.1588
      4 C4         -0.5498    0.2291    1.1919 C.2       1 MOL        -0.1588
      5 C5         -0.0673   -0.7576    0.1704 C.3       1 MOL        -0.0265
      6 H1          2.2887    0.2342   -2.2050 H         1 MOL         0.1112
      7 H2          0.5085   -0.2269   -2.4786 H         1 MOL         0.1112
      8 H3         -2.0300    1.5441    1.9101 H         1 MOL         0.1112
      9 H4         -2.4305    0.6653    0.3213 H         1 MOL         0.1112
     10 H5          2.0722   -0.1547    0.1594 H         1 MOL         0.1210
     11 H6          0.1047    0.4417    2.0337 H         1 MOL         0.1210
     12 H7          0.1177   -1.7160    0.6698 H         1 MOL         0.0517
     13 H8         -0.8423   -0.9463   -0.5830 H         1 MOL         0.0517
@<TRIPOS>BOND
     1    1    3 2
     2    2    4 2
     3    3    5 1
     4    4    5 1
     5    1    6 1
     6    1    7 1
     7    2    8 1
     8    2    9 1
     9    3   10 1
    10    4   11 1
    11    5   12 1
    12    5   13 1
