@<TRIPOS>MOLECULE
hexanal
   19    18     0     0     0
SMALL
USER_CHARGES

@<TRIPOS>ATOM
      1 C1          0.6191    1.6296   -3.0990 C.2       1 MOL         0.5632
      2 C2         -0.6354   -0.8386    2.6565 C.3       1 MOL        -0.0926
      3 C3          0.0906    0.5807   -2.1481 C.3       1 MOL        -0.1988
      4 C4         -0.0529    0.2129    1.7256 C.3       1 MOL        -0.0801
      5 C5          0.3053    0.9146   -0.6744 C.3       1 MOL        -0.0754
      6 C6         -0.3082   -0.1341    0.2585 C.3       1 MOL        -0.0785
      7 O1          1.2316    2.6372   -2.7629 O.2       1 MOL        -0.5241
      8 H1          0.3964    1.4431   -4.1638 H         1 MOL        -0.0104
      9 H2         -1.7130   -0.9360    2.4913 H         1 MOL         0.0330
     10 H3         -0.4756   -0.5662    3.7046 H         1 MOL         0.0330
     11 H4         -0.1752   -1.8162    2.4810 H         1 MOL         0.0330
     12 H5          0.5595   -0.3758   -2.4022 H         1 MOL         0.0659
     13 H6         -0.9830    0.4907   -2.3481 H         1 MOL         0.0659
     14 H7          1.0251    0.2952    1.9063 H         1 MOL         0.0410
     15 H8         -0.4969    1.1869    1.9611 H         1 MOL         0.0410
     16 H9          1.3756    1.0229   -0.4613 H         1 MOL         0.0539
     17 H10        -0.1612    1.8856   -0.4678 H         1 MOL         0.0539
     18 H11        -1.3886   -0.1955    0.0797 H         1 MOL         0.0381
     19 H12         0.1099   -1.1237    0.0415 H         1 MOL         0.0381
@<TRIPOS>BOND
     1    1    3 1
     2    1    7 2
     3    2    4 1
     4    3    5 1
     5    4    6 1
     6    5    6 1
     7    1    8 1
     8    2    9 1
     9    2   10 1
    10    2   11 1
    11    3   12 1
    12    3   13 1
    13    4   14 1
    14    4   15 1
    15    5   16 1
    16    5   17 1
    17    6   18 1
    18    6   19 1
