@<TRIPOS>MOLECULE
pentan-1-amine
   19    18     0     0     0
SMALL
USER_CHARGES

@<TRIPOS>ATOM
      1 C1         -0.0052   -0.6723    0.8990 C.3       1 MOL        -0.0926
      2 C2          1.2685   -0.4528    1.6997 C.3       1 MOL        -0.0801
      3 C3          2.5112   -0.8072    0.8834 C.3       1 MOL        -0.0772
      4 C4          3.7878   -0.6173    1.7026 C.3       1 MOL        -0.0841
      5 C5          5.0290   -0.9341    0.8770 C.3       1 MOL         0.1626
      6 N1          6.2327   -0.7504    1.6409 N.3       1 MOL        -0.9201
      7 H1          0.0117   -0.0681   -0.0135 H         1 MOL         0.0328
      8 H2         -0.1103   -1.7226    0.6090 H         1 MOL         0.0328
      9 H3         -0.8878   -0.3858    1.4797 H         1 MOL         0.0328
     10 H4          1.2322   -1.0655    2.6080 H         1 MOL         0.0394
     11 H5          1.3177    0.5954    2.0170 H         1 MOL         0.0394
     12 H6          2.5534   -0.1776   -0.0138 H         1 MOL         0.0396
     13 H7          2.4435   -1.8482    0.5444 H         1 MOL         0.0396
     14 H8          3.7607   -1.2638    2.5887 H         1 MOL         0.0455
     15 H9          3.8430    0.4152    2.0697 H         1 MOL         0.0455
     16 H10         5.0958   -0.2813    0.0011 H         1 MOL         0.0238
     17 H11         5.0143   -1.9738    0.5347 H         1 MOL         0.0238
     18 H12         6.2945    0.0239    2.2832 H         1 MOL         0.3482
     19 H13         7.0618   -1.2625    1.3831 H         1 MOL         0.3482
@<TRIPOS>BOND
     1    1    2 1
     2    2    3 1
     3    3    4 1
     4    4    5 1
     5    5    6 1
     6    1    7 1
     7    1    8 1
     8    1    9 1
     9    2   10 1
    10    2   11 1
    11    3   12 1
    12    3   13 1
    13    4   14 1
    14    4   15 1
    15    5   16 1
    16    5   17 1
    17    6   18 1
    18    6   19 1
