@<TRIPOS>MOLECULE
m-cresol
   16    16     0     0     0
SMALL
USER_CHARGES

@<TRIPOS>ATOM
      1 C1          1.8851   -1.0363   -0.1124 C.ar      1 MOL        -0.0935
      2 C2          0.8066   -0.4630    0.5610 C.ar      1 MOL        -0.1663
      3 C3          2.9210   -1.6309    0.6081 C.ar      1 MOL        -0.1613
      4 C4          1.7997   -1.0786    2.6757 C.ar      1 MOL        -0.2154
      5 C5          0.7638   -0.4841    1.9551 C.ar      1 MOL        -0.0389
      6 C6          2.8783   -1.6520    2.0022 C.ar      1 MOL         0.1269
      7 C7         -0.3892    0.1293    2.6750 C.3       1 MOL        -0.0566
      8 O1          3.8889   -2.2327    2.7053 O.3       1 MOL        -0.4999
      9 H1          1.9181   -1.0203   -1.1978 H         1 MOL         0.1348
     10 H2          0.0044   -0.0017   -0.0089 H         1 MOL         0.1323
     11 H3          3.7583   -2.0757    0.0777 H         1 MOL         0.1488
     12 H4          1.7692   -1.0964    3.7626 H         1 MOL         0.1329
     13 H5         -1.1813   -0.6133    2.8305 H         1 MOL         0.0460
     14 H6         -0.0844    0.5229    3.6533 H         1 MOL         0.0460
     15 H7         -0.8086    0.9723    2.1103 H         1 MOL         0.0460
     16 H8          3.7161   -2.1679    3.6580 H         1 MOL         0.4181
@<TRIPOS>BOND
     1    1    2 ar
     2    1    3 ar
     3    2    5 ar
     4    3    6 ar
     5    4    5 ar
     6    4    6 ar
     7    5    7 1
     8    6    8 1
     9    1    9 1
    10    2   10 1
    11    3   11 1
    12    4   12 1
    13    7   13 1
    14    7   14 1
    15    7   15 1
    16    8   16 1
