@<TRIPOS>MOLECULE
o-xylene
   18    18     0     0     0
SMALL
USER_CHARGES

@<TRIPOS>ATOM
      1 C1          1.8851   -1.0363   -0.1124 C.ar      1 MOL        -0.1315
      2 C2          0.8066   -0.4630    0.5610 C.ar      1 MOL        -0.1315
      3 C3          2.9210   -1.6309    0.6081 C.ar      1 MOL        -0.1282
      4 C4          0.7638   -0.4841    1.9551 C.ar      1 MOL        -0.1282
      5 C5          2.8783   -1.6520    2.0022 C.ar      1 MOL        -0.0762
      6 C6          1.7997   -1.0786    2.6757 C.ar      1 MOL        -0.0762
      7 C7          3.9980   -2.2951    2.7528 C.3       1 MOL        -0.0542
      8 C8          1.7323   -1.0885    4.1677 C.3       1 MOL        -0.0542
      9 H1          1.9184   -1.0189   -1.1977 H         1 MOL         0.1294
     10 H2          0.0005    0.0001   -0.0007 H         1 MOL         0.1294
     11 H3          3.7577   -2.0734    0.0740 H         1 MOL         0.1297
     12 H4         -0.0811   -0.0352    2.4707 H         1 MOL         0.1297
     13 H5          4.7800   -1.5591    2.9726 H         1 MOL         0.0437
     14 H6          3.6459   -2.7242    3.6989 H         1 MOL         0.0437
     15 H7          4.4421   -3.1156    2.1757 H         1 MOL         0.0437
     16 H8          1.2185   -1.9909    4.5187 H         1 MOL         0.0437
     17 H9          2.7358   -1.0632    4.6099 H         1 MOL         0.0437
     18 H10         1.1945   -0.2103    4.5458 H         1 MOL         0.0437
@<TRIPOS>BOND
     1    1    2 ar
     2    1    3 ar
     3    2    4 ar
     4    3    5 ar
     5    4    6 ar
     6    5    6 ar
     7    5    7 1
     8    6    8 1
     9    1    9 1
    10    2   10 1
    11    3   11 1
    12    4   12 1
    13    7   13 1
    14    7   14 1
    15    7   15 1
    16    8   16 1
    17    8   17 1
    18    8   18 1
