@<TRIPOS>MOLECULE
4-methylmorpholine
   18    18     0     0     0
SMALL
USER_CHARGES

@<TRIPOS>ATOM
      1 C1          0.3521    0.2583   -1.0073 C.3       1 MOL         0.1326
      2 C2         -1.2153   -1.2330   -2.0646 C.3       1 MOL         0.1326
      3 C3         -0.4555    1.4387   -1.5394 C.3       1 MOL         0.1270
      4 C4         -1.9854   -0.0174   -2.5727 C.3       1 MOL         0.1270
      5 C5          0.9621   -2.0406   -1.4116 C.3       1 MOL         0.1591
      6 N1          0.2058   -0.8932   -1.9086 N.3       1 MOL        -0.7314
      7 O1         -1.8315    1.0804   -1.6724 O.3       1 MOL        -0.4181
      8 H1          1.4056    0.5516   -0.9335 H         1 MOL         0.0397
      9 H2         -0.0006   -0.0002   -0.0003 H         1 MOL         0.0397
     10 H3         -1.6368   -1.5566   -1.1039 H         1 MOL         0.0397
     11 H4         -1.3338   -2.0534   -2.7816 H         1 MOL         0.0397
     12 H5         -0.3956    2.2767   -0.8374 H         1 MOL         0.0535
     13 H6         -0.0726    1.7872   -2.5061 H         1 MOL         0.0535
     14 H7         -1.6549    0.2822   -3.5749 H         1 MOL         0.0535
     15 H8         -3.0532   -0.2507   -2.6328 H         1 MOL         0.0535
     16 H9          0.8454   -2.8899   -2.0899 H         1 MOL         0.0329
     17 H10         0.6024   -2.3299   -0.4205 H         1 MOL         0.0329
     18 H11         2.0241   -1.7909   -1.3398 H         1 MOL         0.0329
@<TRIPOS>BOND
     1    1    3 1
     2    1    6 1
     3    2    4 1
     4    2    6 1
     5    3    7 1
     6    4    7 1
     7    5    6 1
     8    1    8 1
     9    1    9 1
    10    2   10 1
    11    2   11 1
    12    3   12 1
    13    3   13 1
    14    4   14 1
    15    4   15 1
    16    5   16 1
    17    5   17 1
    18    5   18 1
