@<TRIPOS>MOLECULE
butyl nitrate
   17    16     0     0     0
SMALL
USER_CHARGES

@<TRIPOS>ATOM
      1 C1          0.4039   -1.0521   -0.1122 C.3       1 MOL        -0.0924
      2 C2         -0.5795   -2.0238    0.5201 C.3       1 MOL        -0.0800
      3 C3         -1.9307   -1.9925   -0.1885 C.3       1 MOL        -0.0848
      4 C4         -2.9047   -2.9950    0.4140 C.3       1 MOL         0.1371
      5 N1         -5.1216   -3.8280    0.1860 N.pl3     1 MOL         0.3698
      6 O1         -4.7286   -4.5050    1.1369 O.3       1 MOL        -0.1644
      7 O2         -6.2176   -3.8295   -0.3792 O.2       1 MOL        -0.1644
      8 O3         -4.1328   -2.9264   -0.2974 O.3       1 MOL        -0.3713
      9 H1          0.0153   -0.0289   -0.0876 H         1 MOL         0.0389
     10 H2          1.3640   -1.0679    0.4135 H         1 MOL         0.0389
     11 H3          0.5844   -1.3218   -1.1574 H         1 MOL         0.0389
     12 H4         -0.1611   -3.0362    0.4794 H         1 MOL         0.0426
     13 H5         -0.7076   -1.7680    1.5784 H         1 MOL         0.0426
     14 H6         -2.3650   -0.9865   -0.1342 H         1 MOL         0.0662
     15 H7         -1.8040   -2.2065   -1.2572 H         1 MOL         0.0662
     16 H8         -2.5139   -4.0145    0.3363 H         1 MOL         0.0580
     17 H9         -3.0991   -2.7668    1.4668 H         1 MOL         0.0580
@<TRIPOS>BOND
     1    1    2 1
     2    2    3 1
     3    3    4 1
     4    4    8 1
     5    5    6 1
     6    5    7 2
     7    5    8 1
     8    1    9 1
     9    1   10 1
    10    1   11 1
    11    2   12 1
    12    2   13 1
    13    3   14 1
    14    3   15 1
    15    4   16 1
    16    4   17 1
