@<TRIPOS>MOLECULE
N-isopropylpropan-2-amine
   22    21     0     0     0
SMALL
USER_CHARGES

@<TRIPOS>ATOM
      1 C1          1.5602    0.7002    2.5783 C.3       1 MOL        -0.0998
      2 C2          0.2583   -1.4395    2.8478 C.3       1 MOL        -0.0998
      3 C3          1.4260   -1.0842   -1.1062 C.3       1 MOL        -0.0998
      4 C4          3.8450   -1.0259   -0.4055 C.3       1 MOL        -0.0998
      5 C5          0.9766   -0.5163    1.8745 C.3       1 MOL         0.1692
      6 C6          2.4184   -0.6430   -0.0401 C.3       1 MOL         0.1692
      7 N1          2.0725   -1.2697    1.2178 N.3       1 MOL        -0.8147
      8 H1          2.2636    0.3978    3.3609 H         1 MOL         0.0376
      9 H2          2.0910    1.3524    1.8757 H         1 MOL         0.0376
     10 H3          0.7683    1.2957    3.0458 H         1 MOL         0.0376
     11 H4          0.9397   -1.7789    3.6357 H         1 MOL         0.0376
     12 H5         -0.1305   -2.3236    2.3319 H         1 MOL         0.0376
     13 H6         -0.5816   -0.9320    3.3353 H         1 MOL         0.0376
     14 H7          1.4720   -2.1676   -1.2573 H         1 MOL         0.0376
     15 H8          0.3988   -0.8214   -0.8297 H         1 MOL         0.0376
     16 H9          1.6433   -0.5987   -2.0639 H         1 MOL         0.0376
     17 H10         3.9328   -2.1090   -0.5448 H         1 MOL         0.0376
     18 H11         4.5430   -0.7280    0.3837 H         1 MOL         0.0376
     19 H12         4.1614   -0.5475   -1.3392 H         1 MOL         0.0376
     20 H13         0.2770   -0.1903    1.0971 H         1 MOL         0.0335
     21 H14         2.3549    0.4424    0.0940 H         1 MOL         0.0335
     22 H15         2.8670   -1.2675    1.8434 H         1 MOL         0.3575
@<TRIPOS>BOND
     1    1    5 1
     2    2    5 1
     3    3    6 1
     4    4    6 1
     5    5    7 1
     6    6    7 1
     7    1    8 1
     8    1    9 1
     9    1   10 1
    10    2   11 1
    11    2   12 1
    12    2   13 1
    13    3   14 1
    14    3   15 1
    15    3   16 1
    16    4   17 1
    17    4   18 1
    18    4   19 1
    19    5   20 1
    20    6   21 1
    21    7   22 1
