@<TRIPOS>MOLECULE
1,3,5-triazinane-2,4,6-trione
   12    12     0     0     0
SMALL
USER_CHARGES

@<TRIPOS>ATOM
      1 C1         -0.6629    1.1635    0.5052 C.2       1 MOL         0.8214
      2 C2          0.1500   -1.1556    0.8309 C.2       1 MOL         0.8214
      3 C3          0.5130   -0.0078   -1.3362 C.2       1 MOL         0.8214
      4 N1         -0.4836    0.0076    1.2611 N.am      1 MOL        -0.5914
      5 N2         -0.1414    1.0907   -0.7841 N.am      1 MOL        -0.5914
      6 N3          0.6254   -1.0981   -0.4769 N.am      1 MOL        -0.5914
      7 O1         -1.2339    2.1640    0.9397 O.2       1 MOL        -0.6056
      8 O2          0.2791   -2.1498    1.5456 O.2       1 MOL        -0.6056
      9 O3          0.9544   -0.0144   -2.4855 O.2       1 MOL        -0.6056
     10 H1         -0.8471    0.0134    2.2098 H         1 MOL         0.3756
     11 H2         -0.2476    1.9112   -1.3738 H         1 MOL         0.3756
     12 H3          1.0955   -1.9242   -0.8357 H         1 MOL         0.3756
@<TRIPOS>BOND
     1    1    4 am
     2    1    5 am
     3    1    7 2
     4    2    4 am
     5    2    6 am
     6    2    8 2
     7    3    5 am
     8    3    6 am
     9    3    9 2
    10    4   10 1
    11    5   11 1
    12    6   12 1
