@<TRIPOS>MOLECULE
(3R)-3-methylhexane
   23    22     0     0     0
SMALL
USER_CHARGES

@<TRIPOS>ATOM
      1 C1          1.6090    0.8044   -6.1572 C.3       1 MOL        -0.0917
      2 C2          2.6748    0.6502   -1.4674 C.3       1 MOL        -0.0924
      3 C3          1.8580   -2.6901   -3.2926 C.3       1 MOL        -0.0903
      4 C4          1.3851   -0.0742   -4.9347 C.3       1 MOL        -0.0805
      5 C5          1.9462   -0.6264   -1.8616 C.3       1 MOL        -0.0758
      6 C6          2.7152   -0.5354   -4.3328 C.3       1 MOL        -0.0730
      7 C7          2.5977   -1.3718   -3.0415 C.3       1 MOL        -0.0623
      8 H1          2.1844    0.2731   -6.9221 H         1 MOL         0.0322
      9 H2          2.1508    1.7173   -5.8904 H         1 MOL         0.0322
     10 H3          0.6491    1.0952   -6.5954 H         1 MOL         0.0322
     11 H4          2.7756    1.3342   -2.3150 H         1 MOL         0.0328
     12 H5          3.6835    0.4121   -1.1145 H         1 MOL         0.0328
     13 H6          2.1482    1.1703   -0.6611 H         1 MOL         0.0328
     14 H7          0.8227   -2.5057   -3.5977 H         1 MOL         0.0332
     15 H8          2.3437   -3.2871   -4.0709 H         1 MOL         0.0332
     16 H9          1.8311   -3.2953   -2.3798 H         1 MOL         0.0332
     17 H10         0.8081    0.4929   -4.1969 H         1 MOL         0.0391
     18 H11         0.7798   -0.9368   -5.2317 H         1 MOL         0.0391
     19 H12         1.8665   -1.2823   -0.9870 H         1 MOL         0.0381
     20 H13         0.9183   -0.3587   -2.1380 H         1 MOL         0.0381
     21 H14         3.2694   -1.1109   -5.0845 H         1 MOL         0.0376
     22 H15         3.3336    0.3470   -4.1210 H         1 MOL         0.0376
     23 H16         3.6214   -1.6353   -2.7416 H         1 MOL         0.0419
@<TRIPOS>BOND
     1    1    4 1
     2    2    5 1
     3    3    7 1
     4    4    6 1
     5    5    7 1
     6    6    7 1
     7    1    8 1
     8    1    9 1
     9    1   10 1
    10    2   11 1
    11    2   12 1
    12    2   13 1
    13    3   14 1
    14    3   15 1
    15    3   16 1
    16    4   17 1
    17    4   18 1
    18    5   19 1
    19    5   20 1
    20    6   21 1
    21    6   22 1
    22    7   23 1
