@<TRIPOS>MOLECULE
2,6-dimethoxyphenol
   21    21     0     0     0
SMALL
USER_CHARGES

@<TRIPOS>ATOM
      1 C1          1.8851   -1.0363   -0.1124 C.ar      1 MOL        -0.1007
      2 C2          0.8066   -0.4630    0.5610 C.ar      1 MOL        -0.1985
      3 C3          2.9210   -1.6309    0.6081 C.ar      1 MOL        -0.1985
      4 C4          0.7638   -0.4841    1.9551 C.ar      1 MOL         0.0946
      5 C5          2.8783   -1.6520    2.0022 C.ar      1 MOL         0.0946
      6 C6          1.7997   -1.0786    2.6757 C.ar      1 MOL         0.0826
      7 C7         -1.3115    0.6652    1.7883 C.3       1 MOL         0.1164
      8 C8          4.9606   -2.7985    1.9292 C.3       1 MOL         0.1164
      9 O1          1.7595   -1.0974    4.0384 O.3       1 MOL        -0.4747
     10 O2         -0.2959    0.0789    2.6000 O.3       1 MOL        -0.3230
     11 O3          3.8963   -2.2360    2.6940 O.3       1 MOL        -0.3230
     12 H1          1.9183   -1.0201   -1.1979 H         1 MOL         0.1334
     13 H2          0.0027   -0.0010   -0.0055 H         1 MOL         0.1401
     14 H3          3.7587   -2.0756    0.0780 H         1 MOL         0.1401
     15 H4         -2.0967    1.0772    2.4268 H         1 MOL         0.0451
     16 H5         -1.7296   -0.0933    1.1217 H         1 MOL         0.0451
     17 H6         -0.8709    1.4681    1.1924 H         1 MOL         0.0451
     18 H7          5.7049   -3.2310    2.6022 H         1 MOL         0.0451
     19 H8          5.4188   -2.0205    1.3134 H         1 MOL         0.0451
     20 H9          4.5583   -3.5821    1.2828 H         1 MOL         0.0451
     21 H10         2.5460   -1.5428    4.3896 H         1 MOL         0.4299
@<TRIPOS>BOND
     1    1    2 ar
     2    1    3 ar
     3    2    4 ar
     4    3    5 ar
     5    4    6 ar
     6    4   10 1
     7    5    6 ar
     8    5   11 1
     9    6    9 1
    10    7   10 1
    11    8   11 1
    12    1   12 1
    13    2   13 1
    14    3   14 1
    15    7   15 1
    16    7   16 1
    17    7   17 1
    18    8   18 1
    19    8   19 1
    20    8   20 1
    21    9   21 1
