@<TRIPOS>MOLECULE
heptan-1-ol
   24    23     0     0     0
SMALL
USER_CHARGES

@<TRIPOS>ATOM
      1 C1          2.0122   -2.5402   -0.1882 C.3       1 MOL        -0.0925
      2 C2          1.5978   -2.9985   -1.5783 C.3       1 MOL        -0.0796
      3 C3          0.0762   -3.0068   -1.7315 C.3       1 MOL        -0.0790
      4 C4         -0.3960   -3.5293   -3.0913 C.3       1 MOL        -0.0776
      5 C5         -1.9190   -3.6070   -3.2176 C.3       1 MOL        -0.0775
      6 C6         -2.3336   -4.1556   -4.5822 C.3       1 MOL        -0.0854
      7 C7         -3.8475   -4.1981   -4.7344 C.3       1 MOL         0.1324
      8 O1         -4.1654   -4.7016   -6.0245 O.3       1 MOL        -0.6016
      9 H1          1.6290   -1.5370    0.0245 H         1 MOL         0.0327
     10 H2          3.1034   -2.5114   -0.1085 H         1 MOL         0.0327
     11 H3          1.6340   -3.2231    0.5793 H         1 MOL         0.0327
     12 H4          1.9965   -4.0034   -1.7589 H         1 MOL         0.0387
     13 H5          2.0517   -2.3292   -2.3167 H         1 MOL         0.0387
     14 H6         -0.3183   -1.9963   -1.5687 H         1 MOL         0.0384
     15 H7         -0.3586   -3.6441   -0.9513 H         1 MOL         0.0384
     16 H8          0.0104   -2.8967   -3.8898 H         1 MOL         0.0414
     17 H9          0.0265   -4.5313   -3.2368 H         1 MOL         0.0414
     18 H10        -2.3586   -2.6124   -3.0838 H         1 MOL         0.0391
     19 H11        -2.3215   -4.2506   -2.4260 H         1 MOL         0.0391
     20 H12        -1.9265   -5.1643   -4.7263 H         1 MOL         0.0549
     21 H13        -1.9049   -3.5418   -5.3843 H         1 MOL         0.0549
     22 H14        -4.2785   -3.1968   -4.6355 H         1 MOL         0.0200
     23 H15        -4.2970   -4.8556   -3.9835 H         1 MOL         0.0200
     24 H16        -5.1341   -4.7159   -6.0891 H         1 MOL         0.3978
@<TRIPOS>BOND
     1    1    2 1
     2    2    3 1
     3    3    4 1
     4    4    5 1
     5    5    6 1
     6    6    7 1
     7    7    8 1
     8    1    9 1
     9    1   10 1
    10    1   11 1
    11    2   12 1
    12    2   13 1
    13    3   14 1
    14    3   15 1
    15    4   16 1
    16    4   17 1
    17    5   18 1
    18    5   19 1
    19    6   20 1
    20    6   21 1
    21    7   22 1
    22    7   23 1
    23    8   24 1
