@<TRIPOS>MOLECULE
isopentyl acetate
   23    22     0     0     0
SMALL
USER_CHARGES

@<TRIPOS>ATOM
      1 C1         -1.3189   -2.1664   -5.8599 C.2       1 MOL         0.6432
      2 C2         -0.8362   -1.5097   -7.1176 C.3       1 MOL        -0.1652
      3 C3         -0.2765   -3.2843   -0.8538 C.3       1 MOL        -0.0915
      4 C4          0.0168   -0.9791    0.0745 C.3       1 MOL        -0.0915
      5 C5         -0.3808   -1.3238   -2.4187 C.3       1 MOL        -0.1134
      6 C6         -1.1136   -2.0995   -3.5067 C.3       1 MOL         0.1543
      7 C7         -0.6860   -1.8165   -0.9949 C.3       1 MOL        -0.0652
      8 O1         -2.1137   -3.0964   -5.8339 O.2       1 MOL        -0.4998
      9 O2         -0.7406   -1.5710   -4.7733 O.3       1 MOL        -0.4759
     10 H1         -1.4966   -0.6793   -7.3793 H         1 MOL         0.0747
     11 H2         -0.7985   -2.2424   -7.9277 H         1 MOL         0.0747
     12 H3          0.1718   -1.1164   -6.9574 H         1 MOL         0.0747
     13 H4          0.8000   -3.4056   -1.0148 H         1 MOL         0.0347
     14 H5         -0.8009   -3.9152   -1.5797 H         1 MOL         0.0347
     15 H6         -0.5068   -3.6582    0.1495 H         1 MOL         0.0347
     16 H7          1.1046   -1.0088   -0.0494 H         1 MOL         0.0347
     17 H8         -0.2191   -1.3525    1.0769 H         1 MOL         0.0347
     18 H9         -0.3029    0.0666    0.0356 H         1 MOL         0.0347
     19 H10         0.6985   -1.3957   -2.6079 H         1 MOL         0.0640
     20 H11        -0.6213   -0.2567   -2.5134 H         1 MOL         0.0640
     21 H12        -0.8430   -3.1597   -3.4801 H         1 MOL         0.0495
     22 H13        -2.1983   -2.0026   -3.4059 H         1 MOL         0.0495
     23 H14        -1.7682   -1.7520   -0.8249 H         1 MOL         0.0457
@<TRIPOS>BOND
     1    1    2 1
     2    1    8 2
     3    1    9 1
     4    3    7 1
     5    4    7 1
     6    5    6 1
     7    5    7 1
     8    6    9 1
     9    2   10 1
    10    2   11 1
    11    2   12 1
    12    3   13 1
    13    3   14 1
    14    3   15 1
    15    4   16 1
    16    4   17 1
    17    4   18 1
    18    5   19 1
    19    5   20 1
    20    6   21 1
    21    6   22 1
    22    7   23 1
