@<TRIPOS>MOLECULE
(ethyldisulfanyl)ethane
   16    15     0     0     0
SMALL
USER_CHARGES

@<TRIPOS>ATOM
      1 C1         -0.2793    0.2909   -0.1360 C.3       1 MOL        -0.0904
      2 C2          2.7148   -5.2654    1.1761 C.3       1 MOL        -0.0904
      3 C3          0.8115   -0.6598    0.3193 C.3       1 MOL         0.0232
      4 C4          1.5891   -4.2574    1.0432 C.3       1 MOL         0.0232
      5 S1          0.2411   -1.6598    1.7146 S.3       1 MOL        -0.2289
      6 S2          1.8940   -2.8212    2.1001 S.3       1 MOL        -0.2289
      7 H1         -1.1789   -0.2498   -0.4493 H         1 MOL         0.0512
      8 H2         -0.5546    0.9963    0.6554 H         1 MOL         0.0512
      9 H3          0.0701    0.8756   -0.9935 H         1 MOL         0.0512
     10 H4          3.6791   -4.8311    0.8912 H         1 MOL         0.0512
     11 H5          2.7937   -5.6481    2.1993 H         1 MOL         0.0512
     12 H6          2.5295   -6.1199    0.5167 H         1 MOL         0.0512
     13 H7          1.6992   -0.0988    0.6272 H         1 MOL         0.0713
     14 H8          1.0980   -1.3275   -0.4988 H         1 MOL         0.0713
     15 H9          0.6368   -4.7121    1.3325 H         1 MOL         0.0713
     16 H10         1.5034   -3.9196    0.0060 H         1 MOL         0.0713
@<TRIPOS>BOND
     1    1    3 1
     2    2    4 1
     3    3    5 1
     4    4    6 1
     5    5    6 1
     6    1    7 1
     7    1    8 1
     8    1    9 1
     9    2   10 1
    10    2   11 1
    11    2   12 1
    12    3   13 1
    13    3   14 1
    14    4   15 1
    15    4   16 1
