@<TRIPOS>MOLECULE
(2R)-2-chloro-2-(difluoromethoxy)-1,1,1-trifluoro-ethane
   12    11     0     0     0
SMALL
USER_CHARGES

@<TRIPOS>ATOM
      1 C1         -0.5010   -0.1492    0.2830 C.3       1 MOL         0.2088
      2 C2         -2.5237    0.2838   -0.8744 C.3       1 MOL         0.5960
      3 C3         -0.0727   -1.0685    1.4067 C.3       1 MOL         0.6370
      4 O1         -1.6690   -0.7019   -0.3208 O.3       1 MOL        -0.4336
      5 F1         -2.9232    1.0954    0.1356 F         1 MOL        -0.2162
      6 F2         -3.6355   -0.3237   -1.3552 F         1 MOL        -0.2162
      7 F3         -1.0305   -1.1634    2.3551 F         1 MOL        -0.2177
      8 F4          1.0424   -0.5957    2.0083 F         1 MOL        -0.2177
      9 F5          0.1987   -2.3142    0.9627 F         1 MOL        -0.2177
     10 Cl1         0.8035   -0.0341   -0.9265 Cl        1 MOL        -0.1176
     11 H1         -0.6962    0.8533    0.6796 H         1 MOL         0.0963
     12 H2         -2.0461    0.8840   -1.6550 H         1 MOL         0.0986
@<TRIPOS>BOND
     1    1    3 1
     2    1    4 1
     3    1   10 1
     4    2    4 1
     5    2    5 1
     6    2    6 1
     7    3    7 1
     8    3    8 1
     9    3    9 1
    10    1   11 1
    11    2   12 1
