@<TRIPOS>MOLECULE
3-methylbutan-2-one
   16    15     0     0     0
SMALL
USER_CHARGES

@<TRIPOS>ATOM
      1 C1         -0.0457    2.1350   -0.1210 C.2       1 MOL         0.5663
      2 C2          0.1910    0.8581    0.6456 C.3       1 MOL        -0.2023
      3 C3          1.7494    3.8113    0.3319 C.3       1 MOL        -0.0863
      4 C4         -0.6398    4.5643    0.1508 C.3       1 MOL        -0.0863
      5 C5          0.2943    3.4405    0.5922 C.3       1 MOL        -0.1645
      6 O1         -0.4680    2.1055   -1.2770 O.2       1 MOL        -0.5314
      7 H1         -0.7063    0.5883    1.2067 H         1 MOL         0.0633
      8 H2          1.0184    1.0000    1.3469 H         1 MOL         0.0633
      9 H3          0.4593    0.0568   -0.0474 H         1 MOL         0.0633
     10 H4          1.9317    3.9774   -0.7357 H         1 MOL         0.0427
     11 H5          2.0227    4.7240    0.8717 H         1 MOL         0.0427
     12 H6          2.4249    3.0146    0.6598 H         1 MOL         0.0427
     13 H7         -0.5280    4.7647   -0.9203 H         1 MOL         0.0427
     14 H8         -0.4279    5.4965    0.6860 H         1 MOL         0.0427
     15 H9         -1.6850    4.2968    0.3377 H         1 MOL         0.0427
     16 H10         0.1432    3.2810    1.6665 H         1 MOL         0.0582
@<TRIPOS>BOND
     1    1    2 1
     2    1    5 1
     3    1    6 2
     4    3    5 1
     5    4    5 1
     6    2    7 1
     7    2    8 1
     8    2    9 1
     9    3   10 1
    10    3   11 1
    11    3   12 1
    12    4   13 1
    13    4   14 1
    14    4   15 1
    15    5   16 1
