@<TRIPOS>MOLECULE
ethanamine
   10     9     0     0     0
SMALL
USER_CHARGES

@<TRIPOS>ATOM
      1 C1          0.4075    0.1872    0.9994 C.3       1 MOL        -0.0949
      2 C2          1.2109   -0.9764    1.4719 C.3       1 MOL         0.1653
      3 N1          2.3152   -1.2363    0.5901 N.3       1 MOL        -0.9292
      4 H1          1.0198    1.0946    0.9602 H         1 MOL         0.0377
      5 H2         -0.0143   -0.0069    0.0073 H         1 MOL         0.0377
      6 H3         -0.4236    0.3700    1.6911 H         1 MOL         0.0377
      7 H4          0.5936   -1.8790    1.5087 H         1 MOL         0.0216
      8 H5          1.6184   -0.7872    2.4694 H         1 MOL         0.0216
      9 H6          2.1881   -1.1263   -0.4040 H         1 MOL         0.3512
     10 H7          3.1282   -1.7143    0.9466 H         1 MOL         0.3512
@<TRIPOS>BOND
     1    1    2 1
     2    2    3 1
     3    1    4 1
     4    1    5 1
     5    1    6 1
     6    2    7 1
     7    2    8 1
     8    3    9 1
     9    3   10 1
