@<TRIPOS>MOLECULE
1,4-benzoquinone
   12    12     0     0     0
SMALL
USER_CHARGES

@<TRIPOS>ATOM
      1 C1          0.3984    0.8407    1.0836 C.2       1 MOL        -0.1815
      2 C2         -0.8007    1.0533    0.5378 C.2       1 MOL        -0.1814
      3 C3          0.8010   -1.0529   -0.5383 C.2       1 MOL        -0.1814
      4 C4         -0.3981   -0.8403   -1.0842 C.2       1 MOL        -0.1814
      5 C5          1.2890   -0.2286    0.5869 C.2       1 MOL         0.5318
      6 C6         -1.2889    0.2286   -0.5868 C.2       1 MOL         0.5318
      7 O1          2.3901   -0.4245    1.0891 O.2       1 MOL        -0.4913
      8 O2         -2.3907    0.4236   -1.0880 O.2       1 MOL        -0.4913
      9 H1          0.7514    1.4477    1.9101 H         1 MOL         0.1612
     10 H2         -1.4512    1.8381    0.9073 H         1 MOL         0.1612
     11 H3          1.4503   -1.8397   -0.9059 H         1 MOL         0.1612
     12 H4         -0.7523   -1.4492   -1.9084 H         1 MOL         0.1612
@<TRIPOS>BOND
     1    1    2 2
     2    1    5 1
     3    2    6 1
     4    3    4 2
     5    3    5 1
     6    4    6 1
     7    5    7 2
     8    6    8 2
     9    1    9 1
    10    2   10 1
    11    3   11 1
    12    4   12 1
