@<TRIPOS>MOLECULE
acetonyl nitrate
   13    12     0     0     0
SMALL
USER_CHARGES

@<TRIPOS>ATOM
      1 C1         -1.7473    1.0396   -0.6554 C.2       1 MOL         0.5666
      2 C2         -0.4757    0.2870   -0.9447 C.3       1 MOL        -0.1947
      3 C3         -2.8085    0.2895    0.1212 C.3       1 MOL         0.0183
      4 N1         -4.9963    0.4564    1.0410 N.pl3     1 MOL         0.3724
      5 O1         -4.7198   -0.6965    1.3747 O.3       1 MOL        -0.1600
      6 O2         -1.9035    2.1996   -1.0338 O.2       1 MOL        -0.5066
      7 O3         -6.0232    1.1080    1.2451 O.2       1 MOL        -0.1600
      8 O4         -3.9499    1.0979    0.3143 O.3       1 MOL        -0.3501
      9 H1         -0.5677   -0.2403   -1.8984 H         1 MOL         0.0760
     10 H2          0.3589    0.9893   -1.0084 H         1 MOL         0.0760
     11 H3         -0.2946   -0.4439   -0.1528 H         1 MOL         0.0760
     12 H4         -2.4119   -0.0099    1.0952 H         1 MOL         0.0929
     13 H5         -3.1045   -0.5973   -0.4453 H         1 MOL         0.0929
@<TRIPOS>BOND
     1    1    2 1
     2    1    3 1
     3    1    6 2
     4    3    8 1
     5    4    5 1
     6    4    7 2
     7    4    8 1
     8    2    9 1
     9    2   10 1
    10    2   11 1
    11    3   12 1
    12    3   13 1
