@<TRIPOS>MOLECULE
1-butoxybutane
   27    26     0     0     0
SMALL
USER_CHARGES

@<TRIPOS>ATOM
      1 C1          0.7086   -2.2896   -0.7882 C.3       1 MOL        -0.0914
      2 C2         -9.0252   -3.4077   -0.2397 C.3       1 MOL        -0.0913
      3 C3         -0.4175   -2.6603    0.1635 C.3       1 MOL        -0.0785
      4 C4         -7.7408   -3.5570    0.5598 C.3       1 MOL        -0.0785
      5 C5         -1.7782   -2.5830   -0.5230 C.3       1 MOL        -0.0841
      6 C6         -6.5174   -3.1834   -0.2724 C.3       1 MOL        -0.0841
      7 C7         -2.9047   -2.9950    0.4140 C.3       1 MOL         0.1327
      8 C8         -5.2329   -3.2900    0.5372 C.3       1 MOL         0.1327
      9 O1         -4.1377   -2.9159   -0.2877 O.3       1 MOL        -0.4250
     10 H1          0.5698   -1.2791   -1.1856 H         1 MOL         0.0345
     11 H2          1.6787   -2.3301   -0.2827 H         1 MOL         0.0345
     12 H3          0.7361   -2.9858   -1.6323 H         1 MOL         0.0345
     13 H4         -9.0036   -4.0338   -1.1375 H         1 MOL         0.0345
     14 H5         -9.8955   -3.6951    0.3589 H         1 MOL         0.0345
     15 H6         -9.1574   -2.3678   -0.5539 H         1 MOL         0.0345
     16 H7         -0.2487   -3.6751    0.5423 H         1 MOL         0.0377
     17 H8         -0.3963   -1.9842    1.0261 H         1 MOL         0.0377
     18 H9         -7.7948   -2.9189    1.4495 H         1 MOL         0.0377
     19 H10        -7.6525   -4.5926    0.9081 H         1 MOL         0.0377
     20 H11        -1.9628   -1.5647   -0.8872 H         1 MOL         0.0537
     21 H12        -1.7920   -3.2259   -1.4121 H         1 MOL         0.0537
     22 H13        -6.4455   -3.8317   -1.1546 H         1 MOL         0.0537
     23 H14        -6.6190   -2.1617   -0.6594 H         1 MOL         0.0537
     24 H15        -2.7673   -4.0239    0.7614 H         1 MOL         0.0236
     25 H16        -2.9546   -2.3293    1.2816 H         1 MOL         0.0236
     26 H17        -5.2606   -2.6214    1.4035 H         1 MOL         0.0236
     27 H18        -5.0732   -4.3161    0.8835 H         1 MOL         0.0236
@<TRIPOS>BOND
     1    1    3 1
     2    2    4 1
     3    3    5 1
     4    4    6 1
     5    5    7 1
     6    6    8 1
     7    7    9 1
     8    8    9 1
     9    1   10 1
    10    1   11 1
    11    1   12 1
    12    2   13 1
    13    2   14 1
    14    2   15 1
    15    3   16 1
    16    3   17 1
    17    4   18 1
    18    4   19 1
    19    5   20 1
    20    5   21 1
    21    6   22 1
    22    6   23 1
    23    7   24 1
    24    7   25 1
    25    8   26 1
    26    8   27 1
