@<TRIPOS>MOLECULE
ethyl pentanoate
   23    22     0     0     0
SMALL
USER_CHARGES

@<TRIPOS>ATOM
      1 C1          2.1308    1.0102    4.6318 C.2       1 MOL         0.6405
      2 C2         -0.5097    0.8297    0.3440 C.3       1 MOL        -0.0935
      3 C3          2.9007    1.1613    8.2091 C.3       1 MOL        -0.1030
      4 C4          0.7559    1.0090    4.0034 C.3       1 MOL        -0.1343
      5 C5         -0.5734    0.9185    1.8603 C.3       1 MOL        -0.0785
      6 C6          0.8236    0.9589    2.4780 C.3       1 MOL        -0.0808
      7 C7          3.2200    1.0848    6.7312 C.3       1 MOL         0.1479
      8 O1          3.1875    0.9580    4.0177 O.2       1 MOL        -0.5158
      9 O2          1.9958    1.0770    5.9897 O.3       1 MOL        -0.4686
     10 H1          0.0439   -0.0594    0.0258 H         1 MOL         0.0356
     11 H2         -1.5141    0.7825   -0.0885 H         1 MOL         0.0356
     12 H3         -0.0043    1.7096   -0.0663 H         1 MOL         0.0356
     13 H4          2.3460    2.0746    8.4417 H         1 MOL         0.0475
     14 H5          2.3052    0.2969    8.5206 H         1 MOL         0.0475
     15 H6          3.8201    1.1454    8.8037 H         1 MOL         0.0475
     16 H7          0.2103    0.1356    4.3781 H         1 MOL         0.0784
     17 H8          0.2347    1.9194    4.3202 H         1 MOL         0.0784
     18 H9         -1.1328    1.8173    2.1450 H         1 MOL         0.0424
     19 H10        -1.1273    0.0554    2.2477 H         1 MOL         0.0424
     20 H11         1.3685    1.8348    2.1037 H         1 MOL         0.0519
     21 H12         1.3931    0.0757    2.1623 H         1 MOL         0.0519
     22 H13         3.7747    0.1693    6.5054 H         1 MOL         0.0455
     23 H14         3.8142    1.9496    6.4215 H         1 MOL         0.0455
@<TRIPOS>BOND
     1    1    4 1
     2    1    8 2
     3    1    9 1
     4    2    5 1
     5    3    7 1
     6    4    6 1
     7    5    6 1
     8    7    9 1
     9    2   10 1
    10    2   11 1
    11    2   12 1
    12    3   13 1
    13    3   14 1
    14    3   15 1
    15    4   16 1
    16    4   17 1
    17    5   18 1
    18    5   19 1
    19    6   20 1
    20    6   21 1
    21    7   22 1
    22    7   23 1
