@<TRIPOS>MOLECULE
[(1R)-1,5-dimethyl-1-vinyl-hex-4-enyl] acetate
   34    33     0     0     0
SMALL
USER_CHARGES

@<TRIPOS>ATOM
      1 C1         -1.8146    2.1788   -1.2335 C.2       1 MOL        -0.2020
      2 C2         -2.6757    1.1541   -1.2087 C.2       1 MOL        -0.1566
      3 C3         -6.3381    1.0648    1.2462 C.2       1 MOL        -0.1741
      4 C4         -6.6454    2.3129    1.6475 C.2       1 MOL        -0.1191
      5 C5         -2.3232   -1.5778   -1.7417 C.2       1 MOL         0.6484
      6 C6         -7.6735    2.6548    2.6886 C.3       1 MOL        -0.0610
      7 C7         -5.9549    3.5032    1.0375 C.3       1 MOL        -0.0610
      8 C8         -2.8555   -2.8408   -2.3478 C.3       1 MOL        -0.1625
      9 C9         -1.5136   -0.2486    0.6041 C.3       1 MOL        -0.1245
     10 C10        -5.3234    0.6584    0.2133 C.3       1 MOL        -0.0424
     11 C11        -3.9469    0.4420    0.8514 C.3       1 MOL        -0.1035
     12 C12        -2.8116    0.0894   -0.1398 C.3       1 MOL         0.2123
     13 O1         -1.2614   -1.0596   -2.0598 O.2       1 MOL        -0.5404
     14 O2         -3.2005   -1.1249   -0.8059 O.3       1 MOL        -0.4547
     15 H1         -1.7869    2.8976   -2.0433 H         1 MOL         0.1153
     16 H2         -1.1089    2.3153   -0.4206 H         1 MOL         0.1153
     17 H3         -3.3601    1.0678   -2.0520 H         1 MOL         0.1304
     18 H4         -6.8812    0.2325    1.6921 H         1 MOL         0.1273
     19 H5         -7.2090    2.6827    3.6802 H         1 MOL         0.0404
     20 H6         -8.4640    1.8975    2.7000 H         1 MOL         0.0404
     21 H7         -8.1418    3.6295    2.5337 H         1 MOL         0.0404
     22 H8         -6.5106    3.8549    0.1620 H         1 MOL         0.0404
     23 H9         -5.8722    4.3419    1.7368 H         1 MOL         0.0404
     24 H10        -4.9418    3.2337    0.7215 H         1 MOL         0.0404
     25 H11        -2.5029   -3.7034   -1.7770 H         1 MOL         0.0749
     26 H12        -2.5390   -2.9136   -3.3913 H         1 MOL         0.0749
     27 H13        -3.9489   -2.8254   -2.3164 H         1 MOL         0.0749
     28 H14        -1.6920   -1.0240    1.3585 H         1 MOL         0.0508
     29 H15        -0.7229   -0.6007   -0.0655 H         1 MOL         0.0508
     30 H16        -1.1367    0.6238    1.1519 H         1 MOL         0.0508
     31 H17        -5.6766   -0.2716   -0.2470 H         1 MOL         0.0472
     32 H18        -5.2671    1.3902   -0.5973 H         1 MOL         0.0472
     33 H19        -4.0151   -0.3511    1.6099 H         1 MOL         0.0695
     34 H20        -3.6623    1.3417    1.4165 H         1 MOL         0.0695
@<TRIPOS>BOND
     1    1    2 2
     2    2   12 1
     3    3    4 2
     4    3   10 1
     5    4    6 1
     6    4    7 1
     7    5    8 1
     8    5   13 2
     9    5   14 1
    10    9   12 1
    11   10   11 1
    12   11   12 1
    13   12   14 1
    14    1   15 1
    15    1   16 1
    16    2   17 1
    17    3   18 1
    18    6   19 1
    19    6   20 1
    20    6   21 1
    21    7   22 1
    22    7   23 1
    23    7   24 1
    24    8   25 1
    25    8   26 1
    26    8   27 1
    27    9   28 1
    28    9   29 1
    29    9   30 1
    30   10   31 1
    31   10   32 1
    32   11   33 1
    33   11   34 1
