@<TRIPOS>MOLECULE
4-ethylphenol
   19    19     0     0     0
SMALL
USER_CHARGES

@<TRIPOS>ATOM
      1 C1          1.8851   -1.0363   -0.1124 C.ar      1 MOL        -0.0916
      2 C2          2.8783   -1.6520    2.0022 C.ar      1 MOL        -0.0916
      3 C3          0.8066   -0.4630    0.5610 C.ar      1 MOL        -0.1833
      4 C4          1.7997   -1.0786    2.6757 C.ar      1 MOL        -0.1833
      5 C5          2.9210   -1.6309    0.6081 C.ar      1 MOL        -0.1124
      6 C6          0.7638   -0.4841    1.9551 C.ar      1 MOL         0.1193
      7 C7          3.8428   -3.7179   -0.4317 C.3       1 MOL        -0.0893
      8 C8          4.0745   -2.2433   -0.1117 C.3       1 MOL        -0.0332
      9 O1         -0.2881    0.0765    2.6120 O.3       1 MOL        -0.4981
     10 H1          1.9102   -1.0154   -1.1986 H         1 MOL         0.1334
     11 H2          3.6809   -2.1132    2.5719 H         1 MOL         0.1334
     12 H3          0.0027   -0.0010   -0.0060 H         1 MOL         0.1410
     13 H4          1.7724   -1.0980    3.7615 H         1 MOL         0.1410
     14 H5          3.6395   -4.2903    0.4798 H         1 MOL         0.0357
     15 H6          4.7231   -4.1524   -0.9157 H         1 MOL         0.0357
     16 H7          2.9884   -3.8440   -1.1052 H         1 MOL         0.0357
     17 H8          4.2755   -1.6992   -1.0486 H         1 MOL         0.0449
     18 H9          4.9957   -2.1451    0.4851 H         1 MOL         0.0449
     19 H10        -0.1742   -0.0173    3.5713 H         1 MOL         0.4178
@<TRIPOS>BOND
     1    1    3 ar
     2    1    5 ar
     3    2    4 ar
     4    2    5 ar
     5    3    6 ar
     6    4    6 ar
     7    5    8 1
     8    6    9 1
     9    7    8 1
    10    1   10 1
    11    2   11 1
    12    3   12 1
    13    4   13 1
    14    7   14 1
    15    7   15 1
    16    7   16 1
    17    8   17 1
    18    8   18 1
    19    9   19 1
