@<TRIPOS>MOLECULE
hexa-1,5-diene
   16    15     0     0     0
SMALL
USER_CHARGES

@<TRIPOS>ATOM
      1 C1         -6.6308    3.3691   -1.1698 C.2       1 MOL        -0.2219
      2 C2         -2.3774    4.3333   -1.4132 C.2       1 MOL        -0.2219
      3 C3         -5.9041    3.3173   -2.2917 C.2       1 MOL        -0.1638
      4 C4         -2.9329    3.1236   -1.5461 C.2       1 MOL        -0.1638
      5 C5         -4.9964    2.1764   -2.6522 C.3       1 MOL        -0.0488
      6 C6         -3.5376    2.6132   -2.8225 C.3       1 MOL        -0.0488
      7 H1         -7.2741    4.2136   -0.9490 H         1 MOL         0.1111
      8 H2         -6.5908    2.5574   -0.4518 H         1 MOL         0.1111
      9 H3         -1.9518    4.6617   -0.4716 H         1 MOL         0.1111
     10 H4         -2.3405    5.0162   -2.2548 H         1 MOL         0.1111
     11 H5         -5.9748    4.1412   -2.9972 H         1 MOL         0.1175
     12 H6         -2.9432    2.4575   -0.6872 H         1 MOL         0.1175
     13 H7         -5.3486    1.7535   -3.6010 H         1 MOL         0.0474
     14 H8         -5.0627    1.3714   -1.9093 H         1 MOL         0.0474
     15 H9         -3.4609    3.3622   -3.6208 H         1 MOL         0.0474
     16 H10        -2.9486    1.7479   -3.1508 H         1 MOL         0.0474
@<TRIPOS>BOND
     1    1    3 2
     2    2    4 2
     3    3    5 1
     4    4    6 1
     5    5    6 1
     6    1    7 1
     7    1    8 1
     8    2    9 1
     9    2   10 1
    10    3   11 1
    11    4   12 1
    12    5   13 1
    13    5   14 1
    14    6   15 1
    15    6   16 1
