@<TRIPOS>MOLECULE
1-aminoanthracene-9,10-dione
   26    28     0     0     0
SMALL
USER_CHARGES

@<TRIPOS>ATOM
      1 C1          1.2904   -1.6865   -0.3516 C.ar      1 MOL        -0.1200
      2 C2          0.9563   -0.4630    0.2256 C.ar      1 MOL        -0.1180
      3 C3          7.7766   -1.5826    3.1822 C.ar      1 MOL        -0.0621
      4 C4          2.5179   -2.2839   -0.0640 C.ar      1 MOL        -0.0863
      5 C5          1.8484    0.1684    1.0928 C.ar      1 MOL        -0.0884
      6 C6          6.8845   -2.2140    2.3149 C.ar      1 MOL        -0.1507
      7 C7          7.4425   -0.3591    3.7594 C.ar      1 MOL        -0.2126
      8 C8          3.4160   -1.6538    0.8057 C.ar      1 MOL        -0.1279
      9 C9          3.0812   -0.4277    1.3842 C.ar      1 MOL        -0.1263
     10 C10         5.6516   -1.6180    2.0237 C.ar      1 MOL        -0.0734
     11 C11         5.3168   -0.3919    2.6022 C.ar      1 MOL        -0.2340
     12 C12         6.2150    0.2382    3.4720 C.ar      1 MOL         0.2607
     13 C13         4.7134   -2.2938    1.1043 C.2       1 MOL         0.5826
     14 C14         4.0194    0.2481    2.3036 C.2       1 MOL         0.6029
     15 N1          5.9467    1.4787    4.0953 N.pl3     1 MOL        -0.8692
     16 O1          5.0075   -3.3691    0.5970 O.2       1 MOL        -0.5257
     17 O2          3.6911    1.3222    2.7914 O.2       1 MOL        -0.5789
     18 H1          0.5941   -2.1759   -1.0263 H         1 MOL         0.1391
     19 H2          0.0002    0.0001   -0.0002 H         1 MOL         0.1404
     20 H3          8.7334   -2.0451    3.4074 H         1 MOL         0.1392
     21 H4          2.7545   -3.2381   -0.5267 H         1 MOL         0.1589
     22 H5          1.5620    1.1218    1.5285 H         1 MOL         0.1621
     23 H6          7.1685   -3.1675    1.8781 H         1 MOL         0.1599
     24 H7          8.1494    0.1194    4.4330 H         1 MOL         0.1359
     25 H8          6.6109    1.8496    4.7416 H         1 MOL         0.4459
     26 H9          5.0591    1.9117    3.9497 H         1 MOL         0.4459
@<TRIPOS>BOND
     1    1    2 ar
     2    1    4 ar
     3    2    5 ar
     4    3    6 ar
     5    3    7 ar
     6    4    8 ar
     7    5    9 ar
     8    6   10 ar
     9    7   12 ar
    10    8    9 ar
    11    8   13 1
    12    9   14 1
    13   10   11 ar
    14   10   13 1
    15   11   12 ar
    16   11   14 1
    17   12   15 1
    18   13   16 2
    19   14   17 2
    20    1   18 1
    21    2   19 1
    22    3   20 1
    23    4   21 1
    24    5   22 1
    25    6   23 1
    26    7   24 1
    27   15   25 1
    28   15   26 1
