@<TRIPOS>MOLECULE
2-nitroaniline
   16    16     0     0     0
SMALL
USER_CHARGES

@<TRIPOS>ATOM
      1 C1          1.8851   -1.0363   -0.1124 C.ar      1 MOL        -0.0599
      2 C2          0.8066   -0.4630    0.5610 C.ar      1 MOL        -0.1771
      3 C3          2.9210   -1.6309    0.6081 C.ar      1 MOL        -0.2004
      4 C4          0.7638   -0.4841    1.9551 C.ar      1 MOL        -0.0439
      5 C5          2.8783   -1.6520    2.0022 C.ar      1 MOL         0.2137
      6 C6          1.7997   -1.0786    2.6757 C.ar      1 MOL        -0.2269
      7 N1          3.9394   -2.2617    2.7089 N.pl3     1 MOL        -0.8304
      8 N2          1.7307   -1.0864    4.0972 N.pl3     1 MOL         0.3081
      9 O1          1.1715   -2.0504    4.6702 O.3       1 MOL        -0.2028
     10 O2          2.2314   -0.1290    4.7322 O.2       1 MOL        -0.2028
     11 H1          1.9184   -1.0196   -1.1978 H         1 MOL         0.1414
     12 H2          0.0002    0.0002   -0.0002 H         1 MOL         0.1458
     13 H3          3.7560   -2.0749    0.0722 H         1 MOL         0.1450
     14 H4         -0.0831   -0.0330    2.4661 H         1 MOL         0.1557
     15 H5          4.6724   -2.7052    2.1957 H         1 MOL         0.4172
     16 H6          3.8886   -2.3200    3.7045 H         1 MOL         0.4172
@<TRIPOS>BOND
     1    1    2 ar
     2    1    3 ar
     3    2    4 ar
     4    3    5 ar
     5    4    6 ar
     6    5    6 ar
     7    5    7 1
     8    6    8 1
     9    8    9 1
    10    8   10 2
    11    1   11 1
    12    2   12 1
    13    3   13 1
    14    4   14 1
    15    7   15 1
    16    7   16 1
