@<TRIPOS>MOLECULE
styrene
   16    16     0     0     0
SMALL
USER_CHARGES

@<TRIPOS>ATOM
      1 C1          1.8851   -1.0363   -0.1124 C.ar      1 MOL        -0.1286
      2 C2          0.8066   -0.4630    0.5610 C.ar      1 MOL        -0.1305
      3 C3          2.9210   -1.6309    0.6081 C.ar      1 MOL        -0.1305
      4 C4          0.7638   -0.4841    1.9551 C.ar      1 MOL        -0.1191
      5 C5          2.8783   -1.6520    2.0022 C.ar      1 MOL        -0.1191
      6 C6          1.7997   -1.0786    2.6757 C.ar      1 MOL        -0.0601
      7 C7          2.8344   -1.0580    4.8992 C.2       1 MOL        -0.2090
      8 C8          1.7557   -1.1009    4.1294 C.2       1 MOL        -0.1147
      9 H1          1.9178   -1.0210   -1.1979 H         1 MOL         0.1299
     10 H2         -0.0007   -0.0010    0.0001 H         1 MOL         0.1314
     11 H3          3.7603   -2.0783    0.0839 H         1 MOL         0.1314
     12 H4         -0.0836   -0.0330    2.4659 H         1 MOL         0.1329
     13 H5          3.6934   -2.1192    2.5498 H         1 MOL         0.1329
     14 H6          2.7076   -1.0667    5.9776 H         1 MOL         0.1141
     15 H7          3.8514   -1.0011    4.5297 H         1 MOL         0.1141
     16 H8          0.7813   -1.1266    4.5889 H         1 MOL         0.1251
@<TRIPOS>BOND
     1    1    2 ar
     2    1    3 ar
     3    2    4 ar
     4    3    5 ar
     5    4    6 ar
     6    5    6 ar
     7    6    8 1
     8    7    8 2
     9    1    9 1
    10    2   10 1
    11    3   11 1
    12    4   12 1
    13    5   13 1
    14    7   14 1
    15    7   15 1
    16    8   16 1
