@<TRIPOS>MOLECULE
2-nitrooxyethyl nitrate
   14    13     0     0     0
SMALL
USER_CHARGES

@<TRIPOS>ATOM
      1 C1         -0.8936    0.4506    0.4416 C.3       1 MOL         0.1220
      2 C2         -2.1461   -0.1936   -0.1209 C.3       1 MOL         0.1220
      3 N1          0.2900    0.8045    2.4748 N.pl3     1 MOL         0.3803
      4 N2         -3.2407   -2.2932   -0.3530 N.pl3     1 MOL         0.3803
      5 O1          1.0352    1.3795    1.6804 O.3       1 MOL        -0.1640
      6 O2         -4.0528   -1.5556   -0.9129 O.3       1 MOL        -0.1640
      7 O3          0.4016    0.6634    3.6948 O.2       1 MOL        -0.1640
      8 O4         -3.2829   -3.5120   -0.1701 O.2       1 MOL        -0.1640
      9 O5         -0.8526    0.2362    1.8472 O.3       1 MOL        -0.3471
     10 O6         -2.1048   -1.5918    0.1373 O.3       1 MOL        -0.3471
     11 H1         -0.8901    1.5299    0.2612 H         1 MOL         0.0864
     12 H2          0.0000    0.0000    0.0000 H         1 MOL         0.0864
     13 H3         -2.2121   -0.0487   -1.2038 H         1 MOL         0.0864
     14 H4         -3.0378    0.2178    0.3611 H         1 MOL         0.0864
@<TRIPOS>BOND
     1    1    2 1
     2    1    9 1
     3    2   10 1
     4    3    5 1
     5    3    7 2
     6    3    9 1
     7    4    6 1
     8    4    8 2
     9    4   10 1
    10    1   11 1
    11    1   12 1
    12    2   13 1
    13    2   14 1
