@<TRIPOS>MOLECULE
2-aminoanthracene-9,10-dione
   26    28     0     0     0
SMALL
USER_CHARGES

@<TRIPOS>ATOM
      1 C1          1.2904   -1.6865   -0.3516 C.ar      1 MOL        -0.1166
      2 C2          0.9563   -0.4630    0.2256 C.ar      1 MOL        -0.1196
      3 C3          2.5179   -2.2839   -0.0640 C.ar      1 MOL        -0.0889
      4 C4          1.8484    0.1684    1.0928 C.ar      1 MOL        -0.0870
      5 C5          6.8845   -2.2140    2.3149 C.ar      1 MOL        -0.0421
      6 C6          7.7766   -1.5826    3.1822 C.ar      1 MOL        -0.1926
      7 C7          6.2150    0.2382    3.4720 C.ar      1 MOL        -0.1580
      8 C8          3.4160   -1.6538    0.8057 C.ar      1 MOL        -0.1240
      9 C9          3.0812   -0.4277    1.3842 C.ar      1 MOL        -0.1294
     10 C10         5.6516   -1.6180    2.0237 C.ar      1 MOL        -0.1826
     11 C11         5.3168   -0.3919    2.6022 C.ar      1 MOL        -0.0823
     12 C12         7.4425   -0.3591    3.7594 C.ar      1 MOL         0.1700
     13 C13         4.7134   -2.2938    1.1043 C.2       1 MOL         0.5909
     14 C14         4.0194    0.2481    2.3036 C.2       1 MOL         0.5834
     15 N1          8.3469    0.2762    4.6363 N.pl3     1 MOL        -0.8259
     16 O1          5.0071   -3.3693    0.5971 O.2       1 MOL        -0.5365
     17 O2          3.7251    1.3235    2.8104 O.2       1 MOL        -0.5272
     18 H1          0.5938   -2.1769   -1.0254 H         1 MOL         0.1408
     19 H2         -0.0006   -0.0005    0.0012 H         1 MOL         0.1409
     20 H3          2.7545   -3.2381   -0.5270 H         1 MOL         0.1604
     21 H4          1.5648    1.1220    1.5304 H         1 MOL         0.1588
     22 H5          7.1687   -3.1676    1.8783 H         1 MOL         0.1589
     23 H6          8.7307   -2.0551    3.4018 H         1 MOL         0.1406
     24 H7          5.9679    1.1935    3.9297 H         1 MOL         0.1597
     25 H8          9.2026   -0.1841    4.8715 H         1 MOL         0.4041
     26 H9          8.0764    1.1300    5.0806 H         1 MOL         0.4041
@<TRIPOS>BOND
     1    1    2 ar
     2    1    3 ar
     3    2    4 ar
     4    3    8 ar
     5    4    9 ar
     6    5    6 ar
     7    5   10 ar
     8    6   12 ar
     9    7   11 ar
    10    7   12 ar
    11    8    9 ar
    12    8   13 1
    13    9   14 1
    14   10   11 ar
    15   10   13 1
    16   11   14 1
    17   12   15 1
    18   13   16 2
    19   14   17 2
    20    1   18 1
    21    2   19 1
    22    3   20 1
    23    4   21 1
    24    5   22 1
    25    6   23 1
    26    7   24 1
    27   15   25 1
    28   15   26 1
