@<TRIPOS>MOLECULE
1-bromo-2-methyl-propane
   14    13     0     0     0
SMALL
USER_CHARGES

@<TRIPOS>ATOM
      1 C1          0.5614   -0.7587    1.0935 C.3       1 MOL        -0.0952
      2 C2         -0.5284    1.3564    0.3292 C.3       1 MOL        -0.0952
      3 C3          0.1782   -0.3277   -1.3773 C.3       1 MOL        -0.0043
      4 C4         -0.3604   -0.1374    0.0403 C.3       1 MOL        -0.0658
      5 Br1         0.3632   -2.2180   -1.8166 Br        1 MOL        -0.1823
      6 H1          1.5654   -0.3225    1.0494 H         1 MOL         0.0399
      7 H2          0.1656   -0.5898    2.1010 H         1 MOL         0.0399
      8 H3          0.6561   -1.8404    0.9583 H         1 MOL         0.0399
      9 H4          0.4280    1.8856    0.2574 H         1 MOL         0.0399
     10 H5         -0.9295    1.5161    1.3355 H         1 MOL         0.0399
     11 H6         -1.2238    1.8145   -0.3821 H         1 MOL         0.0399
     12 H7          1.1624    0.1293   -1.5168 H         1 MOL         0.0715
     13 H8         -0.5103    0.0727   -2.1276 H         1 MOL         0.0715
     14 H9         -1.3481   -0.6077    0.1277 H         1 MOL         0.0606
@<TRIPOS>BOND
     1    1    4 1
     2    2    4 1
     3    3    4 1
     4    3    5 1
     5    1    6 1
     6    1    7 1
     7    1    8 1
     8    2    9 1
     9    2   10 1
    10    2   11 1
    11    3   12 1
    12    3   13 1
    13    4   14 1
