@<TRIPOS>MOLECULE
N-butylbutan-1-amine
   28    27     0     0     0
SMALL
USER_CHARGES

@<TRIPOS>ATOM
      1 C1         -6.1756    2.6138    2.8731 C.3       1 MOL        -0.0924
      2 C2          3.5584    4.5787    3.9222 C.3       1 MOL        -0.0924
      3 C3         -4.8364    2.7234    2.1608 C.3       1 MOL        -0.0794
      4 C4          2.4694    4.1355    2.9576 C.3       1 MOL        -0.0794
      5 C5         -3.7302    3.1743    3.1173 C.3       1 MOL        -0.0831
      6 C6          1.1063    4.0620    3.6496 C.3       1 MOL        -0.0831
      7 C7         -2.3629    3.2356    2.4445 C.3       1 MOL         0.1704
      8 C8         -0.0169    3.6778    2.6921 C.3       1 MOL         0.1704
      9 N1         -1.3228    3.6343    3.3520 N.3       1 MOL        -0.8340
     10 H1         -6.4625    3.5719    3.3183 H         1 MOL         0.0335
     11 H2         -6.9578    2.3198    2.1661 H         1 MOL         0.0335
     12 H3         -6.1370    1.8627    3.6684 H         1 MOL         0.0335
     13 H4          3.6308    3.8939    4.7733 H         1 MOL         0.0335
     14 H5          4.5288    4.5956    3.4161 H         1 MOL         0.0335
     15 H6          3.3579    5.5842    4.3057 H         1 MOL         0.0335
     16 H7         -4.5796    1.7498    1.7276 H         1 MOL         0.0388
     17 H8         -4.9330    3.4330    1.3313 H         1 MOL         0.0388
     18 H9          2.4235    4.8406    2.1196 H         1 MOL         0.0388
     19 H10         2.7382    3.1568    2.5447 H         1 MOL         0.0388
     20 H11        -3.9828    4.1570    3.5343 H         1 MOL         0.0461
     21 H12        -3.6739    2.4717    3.9576 H         1 MOL         0.0461
     22 H13         1.1520    3.3419    4.4759 H         1 MOL         0.0461
     23 H14         0.8724    5.0405    4.0864 H         1 MOL         0.0461
     24 H15        -2.3638    3.9384    1.6055 H         1 MOL         0.0261
     25 H16        -2.0903    2.2473    2.0607 H         1 MOL         0.0261
     26 H17         0.1638    2.6973    2.2404 H         1 MOL         0.0261
     27 H18        -0.0904    4.4155    1.8867 H         1 MOL         0.0261
     28 H19        -1.5220    4.5661    3.7335 H         1 MOL         0.3580
@<TRIPOS>BOND
     1    1    3 1
     2    2    4 1
     3    3    5 1
     4    4    6 1
     5    5    7 1
     6    6    8 1
     7    7    9 1
     8    8    9 1
     9    1   10 1
    10    1   11 1
    11    1   12 1
    12    2   13 1
    13    2   14 1
    14    2   15 1
    15    3   16 1
    16    3   17 1
    17    4   18 1
    18    4   19 1
    19    5   20 1
    20    5   21 1
    21    6   22 1
    22    6   23 1
    23    7   24 1
    24    7   25 1
    25    8   26 1
    26    8   27 1
    27    9   28 1
