@<TRIPOS>MOLECULE
propionic acid
   11    10     0     0     0
SMALL
USER_CHARGES

@<TRIPOS>ATOM
      1 C1         -0.9082   -1.5561   -2.1106 C.2       1 MOL         0.6335
      2 C2          0.7690   -0.5809   -0.5200 C.3       1 MOL        -0.0930
      3 C3          0.3923   -0.8062   -1.9738 C.3       1 MOL        -0.1262
      4 O1         -1.6174   -1.9436   -1.1942 O.2       1 MOL        -0.5485
      5 O2         -1.1977   -1.7502   -3.4230 O.3       1 MOL        -0.6147
      6 H1          0.8761   -1.5384   -0.0011 H         1 MOL         0.0487
      7 H2          1.7173   -0.0394   -0.4388 H         1 MOL         0.0487
      8 H3          0.0031    0.0058   -0.0018 H         1 MOL         0.0487
      9 H4          0.2897    0.1613   -2.4762 H         1 MOL         0.0792
     10 H5          1.1801   -1.3852   -2.4671 H         1 MOL         0.0792
     11 H6         -2.0410   -2.2367   -3.5433 H         1 MOL         0.4442
@<TRIPOS>BOND
     1    1    3 1
     2    1    4 2
     3    1    5 1
     4    2    3 1
     5    2    6 1
     6    2    7 1
     7    2    8 1
     8    3    9 1
     9    3   10 1
    10    5   11 1
