@<TRIPOS>MOLECULE
hexan-2-one
   19    18     0     0     0
SMALL
USER_CHARGES

@<TRIPOS>ATOM
      1 C1          1.2122   -0.7902    1.6756 C.2       1 MOL         0.5623
      2 C2          0.0180   -0.0066    1.0982 C.3       1 MOL        -0.2028
      3 C3          5.2091   -3.8038    0.9405 C.3       1 MOL        -0.0921
      4 C4          2.1100   -1.4926    0.6670 C.3       1 MOL        -0.1791
      5 C5          4.1008   -2.9946    0.2859 C.3       1 MOL        -0.0791
      6 C6          3.2452   -2.2727    1.3260 C.3       1 MOL        -0.0750
      7 O1          1.4370   -0.8530    2.8896 O.2       1 MOL        -0.5338
      8 H1         -0.8758   -0.6374    1.0124 H         1 MOL         0.0634
      9 H2         -0.2653    0.8581    1.7111 H         1 MOL         0.0634
     10 H3          0.2342    0.3779    0.0934 H         1 MOL         0.0634
     11 H4          5.8563   -3.1630    1.5480 H         1 MOL         0.0345
     12 H5          4.7827   -4.5721    1.5931 H         1 MOL         0.0345
     13 H6          5.8277   -4.3026    0.1876 H         1 MOL         0.0345
     14 H7          2.5218   -0.7283   -0.0013 H         1 MOL         0.0627
     15 H8          1.4830   -2.1718    0.0787 H         1 MOL         0.0627
     16 H9          3.4727   -3.6641   -0.3133 H         1 MOL         0.0360
     17 H10         4.5458   -2.2655   -0.4011 H         1 MOL         0.0360
     18 H11         3.8731   -1.5886    1.9104 H         1 MOL         0.0542
     19 H12         2.8302   -3.0018    2.0333 H         1 MOL         0.0542
@<TRIPOS>BOND
     1    1    2 1
     2    1    4 1
     3    1    7 2
     4    3    5 1
     5    4    6 1
     6    5    6 1
     7    2    8 1
     8    2    9 1
     9    2   10 1
    10    3   11 1
    11    3   12 1
    12    3   13 1
    13    4   14 1
    14    4   15 1
    15    5   16 1
    16    5   17 1
    17    6   18 1
    18    6   19 1
