@<TRIPOS>MOLECULE
5-(trifluoromethyl)-1H-pyrimidine-2,4-dione
   15    15     0     0     0
SMALL
USER_CHARGES

@<TRIPOS>ATOM
      1 C1          1.1618    1.5074    2.5831 C.2       1 MOL         0.1207
      2 C2          0.7828    0.3892    1.9521 C.2       1 MOL        -0.3729
      3 C3          1.5361   -0.8685    2.2312 C.2       1 MOL         0.7335
      4 C4          2.9645    0.4331    3.7937 C.2       1 MOL         0.8042
      5 C5         -0.3527    0.3290    0.9825 C.3       1 MOL         0.7217
      6 N1          2.2042    1.5449    3.4677 N.am      1 MOL        -0.4592
      7 N2          2.5780   -0.7394    3.1411 N.am      1 MOL        -0.5807
      8 O1          1.2394   -1.9284    1.6861 O.2       1 MOL        -0.5752
      9 O2          3.9018    0.4728    4.5912 O.2       1 MOL        -0.6144
     10 F1         -0.9310    1.5398    0.8360 F         1 MOL        -0.2295
     11 F2          0.0668   -0.0757   -0.2350 F         1 MOL        -0.2295
     12 F3         -1.3050   -0.5337    1.3960 F         1 MOL        -0.2295
     13 H1          0.6610    2.4560    2.4288 H         1 MOL         0.1829
     14 H2          2.4324    2.4316    3.9075 H         1 MOL         0.3656
     15 H3          3.1104   -1.5787    3.3526 H         1 MOL         0.3624
@<TRIPOS>BOND
     1    1    2 2
     2    1    6 1
     3    2    3 1
     4    2    5 1
     5    3    7 am
     6    3    8 2
     7    4    6 am
     8    4    7 am
     9    4    9 2
    10    5   10 1
    11    5   11 1
    12    5   12 1
    13    1   13 1
    14    6   14 1
    15    7   15 1
