@<TRIPOS>MOLECULE
iodobenzene
   12    12     0     0     0
SMALL
USER_CHARGES

@<TRIPOS>ATOM
      1 C1          1.8851   -1.0363   -0.1124 C.ar      1 MOL        -0.1123
      2 C2          0.8066   -0.4630    0.5610 C.ar      1 MOL        -0.1341
      3 C3          2.9210   -1.6309    0.6081 C.ar      1 MOL        -0.1341
      4 C4          0.7638   -0.4841    1.9551 C.ar      1 MOL        -0.0964
      5 C5          2.8783   -1.6520    2.0022 C.ar      1 MOL        -0.0964
      6 C6          1.7997   -1.0786    2.6757 C.ar      1 MOL         0.0228
      7 I1          1.7360   -1.1105    4.7518 I         1 MOL        -0.1452
      8 H1          1.9183   -1.0200   -1.1979 H         1 MOL         0.1347
      9 H2          0.0001   -0.0000   -0.0002 H         1 MOL         0.1370
     10 H3          3.7608   -2.0771    0.0836 H         1 MOL         0.1370
     11 H4         -0.0855   -0.0318    2.4604 H         1 MOL         0.1434
     12 H5          3.6956   -2.1202    2.5446 H         1 MOL         0.1434
@<TRIPOS>BOND
     1    1    2 ar
     2    1    3 ar
     3    2    4 ar
     4    3    5 ar
     5    4    6 ar
     6    5    6 ar
     7    6    7 1
     8    1    8 1
     9    2    9 1
    10    3   10 1
    11    4   11 1
    12    5   12 1
