@<TRIPOS>MOLECULE
1-nitroethane
   10     9     0     0     0
SMALL
USER_CHARGES

@<TRIPOS>ATOM
      1 C1          0.2391    0.2403    1.0420 C.3       1 MOL        -0.1153
      2 C2          1.1261   -0.8170    1.6638 C.3       1 MOL        -0.0724
      3 N1          2.3767   -0.9039    0.9079 N.pl3     1 MOL         0.2259
      4 O1          2.4361   -1.7143   -0.0387 O.3       1 MOL        -0.2102
      5 O2          3.3126   -0.1486    1.2398 O.2       1 MOL        -0.2102
      6 H1          0.7116    1.2286    1.0733 H         1 MOL         0.0643
      7 H2          0.0160    0.0100   -0.0058 H         1 MOL         0.0643
      8 H3         -0.7103    0.3031    1.5836 H         1 MOL         0.0643
      9 H4          0.6538   -1.8025    1.6321 H         1 MOL         0.0946
     10 H5          1.3844   -0.5686    2.6966 H         1 MOL         0.0946
@<TRIPOS>BOND
     1    1    2 1
     2    2    3 1
     3    3    4 1
     4    3    5 2
     5    1    6 1
     6    1    7 1
     7    1    8 1
     8    2    9 1
     9    2   10 1
