@<TRIPOS>MOLECULE
2-isobutylpyrazine
   22    22     0     0     0
SMALL
USER_CHARGES

@<TRIPOS>ATOM
      1 C1         -2.3674    3.1519   -1.9935 C.ar      1 MOL         0.2722
      2 C2         -1.0138    2.9292   -1.8687 C.ar      1 MOL         0.2848
      3 C3         -2.6406    2.7432    0.2398 C.ar      1 MOL         0.2785
      4 C4         -1.2871    2.5197    0.3646 C.ar      1 MOL         0.3038
      5 C5          0.1917   -0.1014    0.9400 C.3       1 MOL        -0.0935
      6 C6         -0.0721    0.3940    3.3790 C.3       1 MOL        -0.0935
      7 C7         -0.6900    2.1628    1.7040 C.3       1 MOL        -0.1274
      8 C8         -0.6434    0.6475    1.9816 C.3       1 MOL        -0.0637
      9 N1         -3.2051    3.0630   -0.9415 N.ar      1 MOL        -0.6269
     10 N2         -0.4493    2.6090   -0.6874 N.ar      1 MOL        -0.6328
     11 H1         -2.8202    3.4090   -2.9431 H         1 MOL         0.0329
     12 H2         -0.3412    3.0011   -2.7145 H         1 MOL         0.0332
     13 H3         -3.3202    2.6735    1.0811 H         1 MOL         0.0335
     14 H4          1.2232    0.2664    0.9185 H         1 MOL         0.0361
     15 H5         -0.2307    0.0093   -0.0635 H         1 MOL         0.0361
     16 H6          0.2207   -1.1732    1.1646 H         1 MOL         0.0361
     17 H7          0.9483    0.7835    3.4589 H         1 MOL         0.0361
     18 H8         -0.6808    0.8772    4.1511 H         1 MOL         0.0361
     19 H9         -0.0367   -0.6787    3.5963 H         1 MOL         0.0361
     20 H10         0.3182    2.5893    1.7889 H         1 MOL         0.0605
     21 H11        -1.2868    2.6637    2.4783 H         1 MOL         0.0605
     22 H12        -1.6618    0.2391    1.9586 H         1 MOL         0.0610
@<TRIPOS>BOND
     1    1    2 ar
     2    1    9 ar
     3    2   10 ar
     4    3    4 ar
     5    3    9 ar
     6    4    7 1
     7    4   10 ar
     8    5    8 1
     9    6    8 1
    10    7    8 1
    11    1   11 1
    12    2   12 1
    13    3   13 1
    14    5   14 1
    15    5   15 1
    16    5   16 1
    17    6   17 1
    18    6   18 1
    19    6   19 1
    20    7   20 1
    21    7   21 1
    22    8   22 1
