@<TRIPOS>MOLECULE
methylsulfanylmethane
    9     8     0     0     0
SMALL
USER_CHARGES

@<TRIPOS>ATOM
      1 C1          0.9856   -0.3289    0.3401 C.3       1 MOL        -0.0459
      2 C2          2.8855   -0.4869    2.3101 C.3       1 MOL        -0.0459
      3 S1          1.2245    0.1824    2.0582 S.3       1 MOL        -0.2791
      4 H1          0.0025   -0.0056   -0.0107 H         1 MOL         0.0618
      5 H2          1.0509   -1.4171    0.2643 H         1 MOL         0.0618
      6 H3          1.7559    0.1203   -0.2914 H         1 MOL         0.0618
      7 H4          3.2220   -0.2733    3.3276 H         1 MOL         0.0618
      8 H5          3.5810   -0.0303    1.6016 H         1 MOL         0.0618
      9 H6          2.8771   -1.5686    2.1561 H         1 MOL         0.0618
@<TRIPOS>BOND
     1    1    3 1
     2    2    3 1
     3    1    4 1
     4    1    5 1
     5    1    6 1
     6    2    7 1
     7    2    8 1
     8    2    9 1
