@<TRIPOS>MOLECULE
(1R,2S)-1,2-dimethylcyclohexane
   24    24     0     0     0
SMALL
USER_CHARGES

@<TRIPOS>ATOM
      1 C1          0.7402    0.0391    0.8075 C.3       1 MOL        -0.0753
      2 C2          0.2013    0.8940    1.9491 C.3       1 MOL        -0.0752
      3 C3          1.0623   -1.3797    1.2712 C.3       1 MOL        -0.0730
      4 C4          1.1337    0.8902    3.1576 C.3       1 MOL        -0.0730
      5 C5          2.0172   -1.4136    2.4777 C.3       1 MOL        -0.0583
      6 C6          1.4552   -0.5381    3.6246 C.3       1 MOL        -0.0583
      7 C7          3.4435   -1.0419    2.0543 C.3       1 MOL        -0.0884
      8 C8          2.3663   -0.5074    4.8525 C.3       1 MOL        -0.0884
      9 H1         -0.0002    0.0003   -0.0001 H         1 MOL         0.0381
     10 H2          1.6375    0.5082    0.3875 H         1 MOL         0.0381
     11 H3          0.0531    1.9226    1.6016 H         1 MOL         0.0381
     12 H4         -0.7834    0.5165    2.2511 H         1 MOL         0.0381
     13 H5          0.1256   -1.8810    1.5482 H         1 MOL         0.0385
     14 H6          1.4833   -1.9521    0.4359 H         1 MOL         0.0385
     15 H7          2.0568    1.4268    2.9077 H         1 MOL         0.0385
     16 H8          0.6602    1.4496    3.9737 H         1 MOL         0.0385
     17 H9          2.0556   -2.4523    2.8340 H         1 MOL         0.0418
     18 H10         0.5090   -0.9979    3.9445 H         1 MOL         0.0418
     19 H11         3.4591   -0.0176    1.6919 H         1 MOL         0.0334
     20 H12         3.7729   -1.7102    1.2634 H         1 MOL         0.0334
     21 H13         4.1107   -1.1341    2.9071 H         1 MOL         0.0334
     22 H14         3.3221   -0.0590    4.5892 H         1 MOL         0.0334
     23 H15         2.5329   -1.5209    5.2114 H         1 MOL         0.0334
     24 H16         1.9000    0.0800    5.6409 H         1 MOL         0.0334
@<TRIPOS>BOND
     1    1    2 1
     2    1    3 1
     3    2    4 1
     4    3    5 1
     5    4    6 1
     6    5    6 1
     7    5    7 1
     8    6    8 1
     9    1    9 1
    10    1   10 1
    11    2   11 1
    12    2   12 1
    13    3   13 1
    14    3   14 1
    15    4   15 1
    16    4   16 1
    17    5   17 1
    18    6   18 1
    19    7   19 1
    20    7   20 1
    21    7   21 1
    22    8   22 1
    23    8   23 1
    24    8   24 1
