@<TRIPOS>MOLECULE
3,6-dichloro-2-methoxy-benzoic acid
   19    19     0     0     0
SMALL
USER_CHARGES

@<TRIPOS>ATOM
      1 C1          1.8851   -1.0363   -0.1124 C.ar      1 MOL        -0.1322
      2 C2          0.8066   -0.4630    0.5610 C.ar      1 MOL        -0.0890
      3 C3          2.8783   -1.6520    2.0022 C.ar      1 MOL        -0.1190
      4 C4          1.7997   -1.0786    2.6757 C.ar      1 MOL         0.1504
      5 C5          2.9210   -1.6309    0.6081 C.ar      1 MOL         0.0635
      6 C6          0.7638   -0.4841    1.9551 C.ar      1 MOL        -0.0077
      7 C7          3.9515   -2.2705    2.7761 C.2       1 MOL         0.6586
      8 C8          1.1315   -2.2236    4.6501 C.3       1 MOL         0.1100
      9 O1          4.2905   -3.4523    2.7010 O.2       1 MOL        -0.5342
     10 O2          4.5583   -1.3868    3.6113 O.3       1 MOL        -0.5781
     11 O3          1.7623   -1.1009    4.0403 O.3       1 MOL        -0.3271
     12 Cl1         4.2365   -2.3280   -0.2681 Cl        1 MOL        -0.0525
     13 Cl2        -0.5831    0.2357    2.7586 Cl        1 MOL        -0.0584
     14 H1          1.9031   -1.0112   -1.1992 H         1 MOL         0.1605
     15 H2          0.0073   -0.0032   -0.0148 H         1 MOL         0.1578
     16 H3          1.1697   -2.1180    5.7371 H         1 MOL         0.0507
     17 H4          1.6422   -3.1402    4.3442 H         1 MOL         0.0507
     18 H5          0.0887   -2.2645    4.3267 H         1 MOL         0.0507
     19 H6          5.2817   -1.7925    4.1352 H         1 MOL         0.4452
@<TRIPOS>BOND
     1    1    2 ar
     2    1    5 ar
     3    2    6 ar
     4    3    4 ar
     5    3    5 ar
     6    3    7 1
     7    4    6 ar
     8    4   11 1
     9    5   12 1
    10    6   13 1
    11    7    9 2
    12    7   10 1
    13    8   11 1
    14    1   14 1
    15    2   15 1
    16    8   16 1
    17    8   17 1
    18    8   18 1
    19   10   19 1
