@<TRIPOS>MOLECULE
4-nitroaniline
   16    16     0     0     0
SMALL
USER_CHARGES

@<TRIPOS>ATOM
      1 C1          1.8851   -1.0363   -0.1124 C.ar      1 MOL        -0.2253
      2 C2          2.8783   -1.6520    2.0022 C.ar      1 MOL        -0.2253
      3 C3          0.8066   -0.4630    0.5610 C.ar      1 MOL        -0.0160
      4 C4          1.7997   -1.0786    2.6757 C.ar      1 MOL        -0.0160
      5 C5          2.9210   -1.6309    0.6081 C.ar      1 MOL         0.2231
      6 C6          0.7638   -0.4841    1.9551 C.ar      1 MOL        -0.2436
      7 N1          4.0107   -2.2118   -0.0730 N.pl3     1 MOL        -0.8508
      8 N2         -0.3314    0.1036    2.6416 N.pl3     1 MOL         0.3228
      9 O1         -1.2511    0.6372    1.9753 O.2       1 MOL        -0.2204
     10 O2         -0.3499    0.0730    3.8959 O.2       1 MOL        -0.2204
     11 H1          1.9077   -1.0152   -1.1991 H         1 MOL         0.1447
     12 H2          3.6805   -2.1128    2.5731 H         1 MOL         0.1447
     13 H3          0.0059   -0.0025   -0.0126 H         1 MOL         0.1681
     14 H4          1.7802   -1.1005    3.7625 H         1 MOL         0.1681
     15 H5          4.0062   -2.2328   -1.0728 H         1 MOL         0.4231
     16 H6          4.7232   -2.6762    0.4531 H         1 MOL         0.4231
@<TRIPOS>BOND
     1    1    3 ar
     2    1    5 ar
     3    2    4 ar
     4    2    5 ar
     5    3    6 ar
     6    4    6 ar
     7    5    7 1
     8    6    8 1
     9    8    9 2
    10    8   10 2
    11    1   11 1
    12    2   12 1
    13    3   13 1
    14    4   14 1
    15    7   15 1
    16    7   16 1
