@<TRIPOS>MOLECULE
1-chloro-2-methyl-benzene
   15    15     0     0     0
SMALL
USER_CHARGES

@<TRIPOS>ATOM
      1 C1          1.8851   -1.0363   -0.1124 C.ar      1 MOL        -0.1250
      2 C2          0.8066   -0.4630    0.5610 C.ar      1 MOL        -0.1277
      3 C3          2.9210   -1.6309    0.6081 C.ar      1 MOL        -0.1256
      4 C4          0.7638   -0.4841    1.9551 C.ar      1 MOL        -0.1213
      5 C5          2.8783   -1.6520    2.0022 C.ar      1 MOL        -0.0661
      6 C6          1.7997   -1.0786    2.6757 C.ar      1 MOL         0.0158
      7 C7          4.0088   -2.2968    2.7371 C.3       1 MOL        -0.0584
      8 Cl1         1.7121   -1.0858    4.3995 Cl        1 MOL        -0.0986
      9 H1          1.9178   -1.0205   -1.1981 H         1 MOL         0.1351
     10 H2         -0.0004   -0.0013   -0.0004 H         1 MOL         0.1361
     11 H3          3.7566   -2.0751    0.0735 H         1 MOL         0.1360
     12 H4         -0.0843   -0.0341    2.4647 H         1 MOL         0.1461
     13 H5          4.7903   -1.5594    2.9521 H         1 MOL         0.0512
     14 H6          3.6675   -2.7322    3.6839 H         1 MOL         0.0512
     15 H7          4.4480   -3.1121    2.1497 H         1 MOL         0.0512
@<TRIPOS>BOND
     1    1    2 ar
     2    1    3 ar
     3    2    4 ar
     4    3    5 ar
     5    4    6 ar
     6    5    6 ar
     7    5    7 1
     8    6    8 1
     9    1    9 1
    10    2   10 1
    11    3   11 1
    12    4   12 1
    13    7   13 1
    14    7   14 1
    15    7   15 1
