@<TRIPOS>MOLECULE
quinoline
   17    18     0     0     0
SMALL
USER_CHARGES

@<TRIPOS>ATOM
      1 C1          0.1298    2.0977   -0.4527 C.ar      1 MOL        -0.1268
      2 C2         -0.5469    0.8976   -0.2738 C.ar      1 MOL        -0.1238
      3 C3         -4.0902    4.2376   -1.4936 C.ar      1 MOL        -0.2498
      4 C4         -0.5812    3.2417   -0.8037 C.ar      1 MOL        -0.1115
      5 C5         -2.7151    4.3237   -1.3301 C.ar      1 MOL        -0.0801
      6 C6         -1.9323    0.8440   -0.4461 C.ar      1 MOL        -0.1643
      7 C7         -4.6804    3.0058   -1.2959 C.ar      1 MOL         0.4113
      8 C8         -1.9747    3.1875   -0.9770 C.ar      1 MOL        -0.1480
      9 C9         -2.6683    1.9725   -0.7968 C.ar      1 MOL         0.3931
     10 N1         -4.0027    1.8858   -0.9548 N.ar      1 MOL        -0.6576
     11 H1          1.2068    2.1425   -0.3219 H         1 MOL         0.1343
     12 H2          0.0001    0.0000   -0.0007 H         1 MOL         0.1355
     13 H3         -4.6779    5.1058   -1.7678 H         1 MOL         0.1436
     14 H4         -0.0422    4.1763   -0.9411 H         1 MOL         0.1337
     15 H5         -2.2235    5.2822   -1.4809 H         1 MOL         0.1377
     16 H6         -2.4389   -0.1083   -0.2998 H         1 MOL         0.1509
     17 H7         -5.7519    2.8778   -1.4106 H         1 MOL         0.0218
@<TRIPOS>BOND
     1    1    2 ar
     2    1    4 ar
     3    2    6 ar
     4    3    5 ar
     5    3    7 ar
     6    4    8 ar
     7    5    8 ar
     8    6    9 ar
     9    7   10 ar
    10    8    9 ar
    11    9   10 ar
    12    1   11 1
    13    2   12 1
    14    3   13 1
    15    4   14 1
    16    5   15 1
    17    6   16 1
    18    7   17 1
