@<TRIPOS>MOLECULE
1-(3-pyridyl)ethanone
   16    16     0     0     0
SMALL
USER_CHARGES

@<TRIPOS>ATOM
      1 C1          0.2265   -0.4197    0.9733 C.ar      1 MOL        -0.2495
      2 C2          1.3879   -0.0684    1.6522 C.ar      1 MOL        -0.0559
      3 C3         -0.6317   -1.3224    1.5803 C.ar      1 MOL         0.4082
      4 C4          0.7299   -1.5161    3.4206 C.ar      1 MOL         0.4236
      5 C5          1.6520   -0.6227    2.8997 C.ar      1 MOL        -0.2809
      6 C6          2.8572   -0.2746    3.6316 C.2       1 MOL         0.5816
      7 C7          2.7931   -0.3058    5.1320 C.3       1 MOL        -0.1977
      8 N1         -0.4092   -1.8816    2.7908 N.ar      1 MOL        -0.6665
      9 O1          3.9302    0.0501    3.1160 O.2       1 MOL        -0.5159
     10 H1         -0.0005   -0.0000    0.0000 H         1 MOL         0.1498
     11 H2          2.0802    0.6368    1.2001 H         1 MOL         0.1480
     12 H3         -1.5507   -1.6291    1.0919 H         1 MOL         0.0262
     13 H4          0.8808   -1.9808    4.3904 H         1 MOL         0.0260
     14 H5          3.0581   -1.2813    5.5695 H         1 MOL         0.0676
     15 H6          1.8058   -0.0231    5.5289 H         1 MOL         0.0676
     16 H7          3.4956    0.3973    5.6139 H         1 MOL         0.0676
@<TRIPOS>BOND
     1    1    2 ar
     2    1    3 ar
     3    2    5 ar
     4    3    8 ar
     5    4    5 ar
     6    4    8 ar
     7    5    6 1
     8    6    7 1
     9    6    9 2
    10    1   10 1
    11    2   11 1
    12    3   12 1
    13    4   13 1
    14    7   14 1
    15    7   15 1
    16    7   16 1
