@<TRIPOS>MOLECULE
4-hydroxybenzaldehyde
   15    15     0     0     0
SMALL
USER_CHARGES

@<TRIPOS>ATOM
      1 C1          1.8851   -1.0363   -0.1124 C.ar      1 MOL        -0.0410
      2 C2          2.8783   -1.6520    2.0022 C.ar      1 MOL        -0.0410
      3 C3          0.8066   -0.4630    0.5610 C.ar      1 MOL        -0.2030
      4 C4          1.7997   -1.0786    2.6757 C.ar      1 MOL        -0.2030
      5 C5          2.9210   -1.6309    0.6081 C.ar      1 MOL        -0.2344
      6 C6          0.7638   -0.4841    1.9551 C.ar      1 MOL         0.1568
      7 C7          4.0457   -2.2285   -0.0938 C.2       1 MOL         0.5806
      8 O1          4.9919   -2.7686    0.4860 O.2       1 MOL        -0.5321
      9 O2         -0.2886    0.0750    2.6125 O.3       1 MOL        -0.4905
     10 H1          1.9078   -1.0136   -1.1990 H         1 MOL         0.1464
     11 H2          3.6806   -2.1126    2.5729 H         1 MOL         0.1464
     12 H3          0.0026   -0.0015   -0.0059 H         1 MOL         0.1481
     13 H4          1.7717   -1.0984    3.7617 H         1 MOL         0.1481
     14 H5          4.0357   -2.1871   -1.2048 H         1 MOL        -0.0052
     15 H6         -0.9231    0.4452    1.9782 H         1 MOL         0.4238
@<TRIPOS>BOND
     1    1    3 ar
     2    1    5 ar
     3    2    4 ar
     4    2    5 ar
     5    3    6 ar
     6    4    6 ar
     7    5    7 1
     8    6    9 1
     9    7    8 2
    10    1   10 1
    11    2   11 1
    12    3   12 1
    13    4   13 1
    14    7   14 1
    15    9   15 1
