@<TRIPOS>MOLECULE
naphthalen-2-amine
   20    21     0     0     0
SMALL
USER_CHARGES

@<TRIPOS>ATOM
      1 C1         -0.4966   -2.0341    0.4940 C.ar      1 MOL        -0.1430
      2 C2          0.3500   -1.0275    0.0392 C.ar      1 MOL        -0.1176
      3 C3         -0.0479   -3.3542    0.5448 C.ar      1 MOL        -0.1046
      4 C4          1.6484   -1.3369   -0.3665 C.ar      1 MOL        -0.1308
      5 C5          1.7243   -5.0072    0.1848 C.ar      1 MOL        -0.0858
      6 C6          3.0228   -5.3167   -0.2210 C.ar      1 MOL        -0.1669
      7 C7          3.4207   -2.9899   -0.7267 C.ar      1 MOL        -0.2003
      8 C8          1.2560   -3.6839    0.1403 C.ar      1 MOL        -0.0706
      9 C9          2.1168   -2.6602   -0.3222 C.ar      1 MOL         0.0033
     10 C10         3.8693   -4.3100   -0.6758 C.ar      1 MOL         0.1404
     11 N1          5.1821   -4.6242   -1.0852 N.pl3     1 MOL        -0.8182
     12 H1         -1.5075   -1.7926    0.8094 H         1 MOL         0.1297
     13 H2         -0.0001    0.0000    0.0003 H         1 MOL         0.1307
     14 H3         -0.7268   -4.1255    0.9023 H         1 MOL         0.1293
     15 H4          2.2920   -0.5337   -0.7194 H         1 MOL         0.1305
     16 H5          1.0795   -5.8097    0.5368 H         1 MOL         0.1320
     17 H6          3.3630   -6.3482   -0.1773 H         1 MOL         0.1323
     18 H7          4.0918   -2.2104   -1.0841 H         1 MOL         0.1325
     19 H8          5.5075   -5.5657   -0.9994 H         1 MOL         0.3885
     20 H9          5.7953   -3.8857   -1.3651 H         1 MOL         0.3885
@<TRIPOS>BOND
     1    1    2 ar
     2    1    3 ar
     3    2    4 ar
     4    3    8 ar
     5    4    9 ar
     6    5    6 ar
     7    5    8 ar
     8    6   10 ar
     9    7    9 ar
    10    7   10 ar
    11    8    9 ar
    12   10   11 1
    13    1   12 1
    14    2   13 1
    15    3   14 1
    16    4   15 1
    17    5   16 1
    18    6   17 1
    19    7   18 1
    20   11   19 1
    21   11   20 1
