@<TRIPOS>MOLECULE
3-methoxyphenol
   17    17     0     0     0
SMALL
USER_CHARGES

@<TRIPOS>ATOM
      1 C1          1.8851   -1.0363   -0.1124 C.ar      1 MOL        -0.0652
      2 C2          0.8066   -0.4630    0.5610 C.ar      1 MOL        -0.1895
      3 C3          2.9210   -1.6309    0.6081 C.ar      1 MOL        -0.2405
      4 C4          1.7997   -1.0786    2.6757 C.ar      1 MOL        -0.2443
      5 C5          0.7638   -0.4841    1.9551 C.ar      1 MOL         0.1547
      6 C6          2.8783   -1.6520    2.0022 C.ar      1 MOL         0.1614
      7 C7          4.9587   -2.8032    1.9527 C.3       1 MOL         0.1135
      8 O1         -0.2878    0.0771    2.6120 O.3       1 MOL        -0.4964
      9 O2          3.8880   -2.2341    2.7048 O.3       1 MOL        -0.3274
     10 H1          1.9183   -1.0199   -1.1979 H         1 MOL         0.1324
     11 H2          0.0027   -0.0009   -0.0056 H         1 MOL         0.1529
     12 H3          3.7581   -2.0770    0.0782 H         1 MOL         0.1401
     13 H4          1.7666   -1.0947    3.7621 H         1 MOL         0.1509
     14 H5          5.6958   -3.2336    2.6350 H         1 MOL         0.0455
     15 H6          5.4243   -2.0294    1.3371 H         1 MOL         0.0455
     16 H7          4.5607   -3.5894    1.3068 H         1 MOL         0.0455
     17 H8         -0.1740   -0.0167    3.5712 H         1 MOL         0.4208
@<TRIPOS>BOND
     1    1    2 ar
     2    1    3 ar
     3    2    5 ar
     4    3    6 ar
     5    4    5 ar
     6    4    6 ar
     7    5    8 1
     8    6    9 1
     9    7    9 1
    10    1   10 1
    11    2   11 1
    12    3   12 1
    13    4   13 1
    14    7   14 1
    15    7   15 1
    16    7   16 1
    17    8   17 1
