@<TRIPOS>MOLECULE
1,1-dimethyl-3-phenyl-urea
   24    24     0     0     0
SMALL
USER_CHARGES

@<TRIPOS>ATOM
      1 C1          7.9392   -0.6153   -2.4818 C.ar      1 MOL        -0.1649
      2 C2          7.6079    0.7225   -2.2669 C.ar      1 MOL        -0.1007
      3 C3          7.0260   -1.6201   -2.1621 C.ar      1 MOL        -0.1007
      4 C4          6.3634    1.0555   -1.7321 C.ar      1 MOL        -0.1760
      5 C5          5.7815   -1.2871   -1.6273 C.ar      1 MOL        -0.1760
      6 C6          5.4502    0.0507   -1.4123 C.ar      1 MOL         0.0864
      7 C7          3.1585   -0.4801   -0.4942 C.2       1 MOL         0.7781
      8 C8          1.2212   -0.7481    1.0842 C.3       1 MOL         0.0820
      9 C9          2.6166    1.2883    1.2126 C.3       1 MOL         0.0820
     10 N1          4.1859    0.3893   -0.8691 N.am      1 MOL        -0.4807
     11 N2          2.3574    0.0034    0.5664 N.am      1 MOL        -0.4837
     12 O1          2.9347   -1.5651   -1.0353 O.2       1 MOL        -0.6230
     13 H1          8.9079   -0.8749   -2.8990 H         1 MOL         0.1303
     14 H2          8.3182    1.5050   -2.5165 H         1 MOL         0.1320
     15 H3          7.2840   -2.6617   -2.3305 H         1 MOL         0.1320
     16 H4          6.1161    2.1015   -1.5690 H         1 MOL         0.1507
     17 H5          5.0778   -2.0787   -1.3820 H         1 MOL         0.1507
     18 H6          1.5442   -1.4066    1.8948 H         1 MOL         0.0437
     19 H7          0.7779   -1.3571    0.2916 H         1 MOL         0.0437
     20 H8          0.4593   -0.0645    1.4685 H         1 MOL         0.0437
     21 H9          2.0673    2.0834    0.7016 H         1 MOL         0.0437
     22 H10         3.6845    1.5202    1.1781 H         1 MOL         0.0437
     23 H11         2.2984    1.2566    2.2581 H         1 MOL         0.0437
     24 H12         4.0056    1.3793   -0.7370 H         1 MOL         0.3190
@<TRIPOS>BOND
     1    1    2 ar
     2    1    3 ar
     3    2    4 ar
     4    3    5 ar
     5    4    6 ar
     6    5    6 ar
     7    6   10 1
     8    7   10 am
     9    7   11 am
    10    7   12 2
    11    8   11 1
    12    9   11 1
    13    1   13 1
    14    2   14 1
    15    3   15 1
    16    4   16 1
    17    5   17 1
    18    8   18 1
    19    8   19 1
    20    8   20 1
    21    9   21 1
    22    9   22 1
    23    9   23 1
    24   10   24 1
