@<TRIPOS>MOLECULE
non-1-ene
   27    26     0     0     0
SMALL
USER_CHARGES

@<TRIPOS>ATOM
      1 C1          1.6764   -4.6654    3.5070 C.2       1 MOL        -0.2280
      2 C2          1.9905   -3.6898    2.6475 C.2       1 MOL        -0.1615
      3 C3         -2.8068    2.7086   -1.2752 C.3       1 MOL        -0.0933
      4 C4          1.3678   -2.3250    2.6632 C.3       1 MOL        -0.0537
      5 C5         -2.0766    1.3759   -1.3199 C.3       1 MOL        -0.0797
      6 C6          0.7375   -1.9362    1.3216 C.3       1 MOL        -0.0789
      7 C7         -1.3589    1.0862   -0.0018 C.3       1 MOL        -0.0816
      8 C8          0.0321   -0.5752    1.2952 C.3       1 MOL        -0.0770
      9 C9         -0.6527   -0.2710   -0.0390 C.3       1 MOL        -0.0762
     10 H1          2.1676   -5.6303    3.4459 H         1 MOL         0.1105
     11 H2          0.9288   -4.5221    4.2792 H         1 MOL         0.1105
     12 H3          2.7498   -3.8834    1.8944 H         1 MOL         0.1182
     13 H4         -2.1135    3.5286   -1.0619 H         1 MOL         0.0326
     14 H5         -3.5703    2.6966   -0.4910 H         1 MOL         0.0326
     15 H6         -3.3025    2.9167   -2.2288 H         1 MOL         0.0326
     16 H7          0.6280   -2.2374    3.4669 H         1 MOL         0.0478
     17 H8          2.1564   -1.5993    2.8983 H         1 MOL         0.0478
     18 H9         -2.7971    0.5782   -1.5349 H         1 MOL         0.0384
     19 H10        -1.3527    1.3900   -2.1430 H         1 MOL         0.0384
     20 H11         1.5207   -1.9460    0.5533 H         1 MOL         0.0423
     21 H12         0.0120   -2.7064    1.0297 H         1 MOL         0.0423
     22 H13        -0.6250    1.8764    0.1984 H         1 MOL         0.0400
     23 H14        -2.0833    1.1014    0.8216 H         1 MOL         0.0400
     24 H15         0.7431    0.2231    1.5383 H         1 MOL         0.0388
     25 H16        -0.7220   -0.5701    2.0925 H         1 MOL         0.0388
     26 H17         0.0851   -0.2674   -0.8488 H         1 MOL         0.0390
     27 H18        -1.3818   -1.0581   -0.2659 H         1 MOL         0.0390
@<TRIPOS>BOND
     1    1    2 2
     2    2    4 1
     3    3    5 1
     4    4    6 1
     5    5    7 1
     6    6    8 1
     7    7    9 1
     8    8    9 1
     9    1   10 1
    10    1   11 1
    11    2   12 1
    12    3   13 1
    13    3   14 1
    14    3   15 1
    15    4   16 1
    16    4   17 1
    17    5   18 1
    18    5   19 1
    19    6   20 1
    20    6   21 1
    21    7   22 1
    22    7   23 1
    23    8   24 1
    24    8   25 1
    25    9   26 1
    26    9   27 1
