@<TRIPOS>MOLECULE
1-naphthyl N-methylcarbamate
   26    27     0     0     0
SMALL
USER_CHARGES

@<TRIPOS>ATOM
      1 C1         -0.4966   -2.0341    0.4940 C.ar      1 MOL        -0.1181
      2 C2          0.3500   -1.0275    0.0392 C.ar      1 MOL        -0.1332
      3 C3          3.0228   -5.3167   -0.2210 C.ar      1 MOL        -0.1101
      4 C4         -0.0479   -3.3542    0.5448 C.ar      1 MOL        -0.1250
      5 C5          1.6484   -1.3369   -0.3665 C.ar      1 MOL        -0.0940
      6 C6          1.7243   -5.0072    0.1848 C.ar      1 MOL        -0.1262
      7 C7          3.8693   -4.3100   -0.6758 C.ar      1 MOL        -0.1688
      8 C8          1.2560   -3.6839    0.1403 C.ar      1 MOL        -0.0230
      9 C9          2.1168   -2.6602   -0.3222 C.ar      1 MOL        -0.0356
     10 C10         3.4207   -2.9899   -0.7267 C.ar      1 MOL         0.1352
     11 C11         4.2436   -1.8128   -2.5679 C.2       1 MOL         0.7367
     12 C12         5.3374   -0.3878   -4.2901 C.3       1 MOL         0.0838
     13 N1          5.1495   -0.8374   -2.9304 N.am      1 MOL        -0.5577
     14 O1          3.4970   -2.4149   -3.3339 O.2       1 MOL        -0.5261
     15 O2          4.2871   -2.0364   -1.1801 O.3       1 MOL        -0.3764
     16 H1         -1.5073   -1.7925    0.8098 H         1 MOL         0.1321
     17 H2         -0.0002   -0.0000    0.0000 H         1 MOL         0.1344
     18 H3          3.3726   -6.3442   -0.1817 H         1 MOL         0.1355
     19 H4         -0.7269   -4.1249    0.9038 H         1 MOL         0.1335
     20 H5          2.2840   -0.5265   -0.7166 H         1 MOL         0.1508
     21 H6          1.0800   -5.8101    0.5368 H         1 MOL         0.1350
     22 H7          4.8792   -4.5596   -0.9901 H         1 MOL         0.1423
     23 H8          6.1054   -0.9902   -4.7823 H         1 MOL         0.0487
     24 H9          5.6506    0.6597   -4.3020 H         1 MOL         0.0487
     25 H10         4.4038   -0.4809   -4.8515 H         1 MOL         0.0487
     26 H11         5.7148   -0.4126   -2.2018 H         1 MOL         0.3288
@<TRIPOS>BOND
     1    1    2 ar
     2    1    4 ar
     3    2    5 ar
     4    3    6 ar
     5    3    7 ar
     6    4    8 ar
     7    5    9 ar
     8    6    8 ar
     9    7   10 ar
    10    8    9 ar
    11    9   10 ar
    12   10   15 1
    13   11   13 am
    14   11   14 2
    15   11   15 1
    16   12   13 1
    17    1   16 1
    18    2   17 1
    19    3   18 1
    20    4   19 1
    21    5   20 1
    22    6   21 1
    23    7   22 1
    24   12   23 1
    25   12   24 1
    26   12   25 1
    27   13   26 1
