@<TRIPOS>MOLECULE
(2S,5R)-2-isopropyl-5-methyl-cyclohexanone
   29    29     0     0     0
SMALL
USER_CHARGES

@<TRIPOS>ATOM
      1 C1          0.1745   -0.6413   -2.0179 C.2       1 MOL         0.5704
      2 C2         -0.0176    0.4586   -0.9953 C.3       1 MOL        -0.1785
      3 C3         -2.2816   -0.8278   -2.4091 C.3       1 MOL        -0.0713
      4 C4         -2.5093    0.2238   -1.3229 C.3       1 MOL        -0.0818
      5 C5         -0.9885   -1.6141   -2.1782 C.3       1 MOL        -0.1549
      6 C6         -1.3300    1.2032   -1.2462 C.3       1 MOL        -0.0609
      7 C7         -1.5684    2.2506   -0.1607 C.3       1 MOL        -0.0911
      8 C8         -1.6100   -3.8501   -3.1361 C.3       1 MOL        -0.0901
      9 C9         -1.0260   -1.9472   -4.6663 C.3       1 MOL        -0.0901
     10 C10        -0.7470   -2.6022   -3.3148 C.3       1 MOL        -0.0618
     11 O1          1.2452   -0.7776   -2.6081 O.2       1 MOL        -0.5335
     12 H1          0.0001   -0.0007   -0.0003 H         1 MOL         0.0687
     13 H2          0.8277    1.1530   -1.0607 H         1 MOL         0.0687
     14 H3         -3.1365   -1.5142   -2.4306 H         1 MOL         0.0508
     15 H4         -2.2478   -0.3283   -3.3861 H         1 MOL         0.0508
     16 H5         -3.4345    0.7704   -1.5410 H         1 MOL         0.0448
     17 H6         -2.6521   -0.2739   -0.3554 H         1 MOL         0.0448
     18 H7         -1.0635   -2.1769   -1.2392 H         1 MOL         0.0687
     19 H8         -1.2552    1.7234   -2.2109 H         1 MOL         0.0546
     20 H9         -1.6473    1.7646    0.8104 H         1 MOL         0.0372
     21 H10        -2.4915    2.7907   -0.3651 H         1 MOL         0.0372
     22 H11        -0.7394    2.9563   -0.1401 H         1 MOL         0.0372
     23 H12        -2.6769   -3.6019   -3.1520 H         1 MOL         0.0353
     24 H13        -1.3907   -4.3403   -2.1818 H         1 MOL         0.0353
     25 H14        -1.4189   -4.5736   -3.9357 H         1 MOL         0.0353
     26 H15        -2.0694   -1.6226   -4.7436 H         1 MOL         0.0353
     27 H16        -0.8268   -2.6453   -5.4863 H         1 MOL         0.0353
     28 H17        -0.3870   -1.0697   -4.8115 H         1 MOL         0.0353
     29 H18         0.3070   -2.9068   -3.2913 H         1 MOL         0.0682
@<TRIPOS>BOND
     1    1    2 1
     2    1    5 1
     3    1   11 2
     4    2    6 1
     5    3    4 1
     6    3    5 1
     7    4    6 1
     8    5   10 1
     9    6    7 1
    10    8   10 1
    11    9   10 1
    12    2   12 1
    13    2   13 1
    14    3   14 1
    15    3   15 1
    16    4   16 1
    17    4   17 1
    18    5   18 1
    19    6   19 1
    20    7   20 1
    21    7   21 1
    22    7   22 1
    23    8   23 1
    24    8   24 1
    25    8   25 1
    26    9   26 1
    27    9   27 1
    28    9   28 1
    29   10   29 1
