@<TRIPOS>MOLECULE
butan-1-ol
   15    14     0     0     0
SMALL
USER_CHARGES

@<TRIPOS>ATOM
      1 C1          0.4039   -1.0521   -0.1122 C.3       1 MOL        -0.0917
      2 C2         -0.5795   -2.0238    0.5201 C.3       1 MOL        -0.0790
      3 C3         -1.9307   -1.9925   -0.1885 C.3       1 MOL        -0.0854
      4 C4         -2.9047   -2.9950    0.4140 C.3       1 MOL         0.1315
      5 O1         -4.1328   -2.9264   -0.2974 O.3       1 MOL        -0.6018
      6 H1          0.0153   -0.0289   -0.0876 H         1 MOL         0.0345
      7 H2          1.3640   -1.0679    0.4135 H         1 MOL         0.0345
      8 H3          0.5844   -1.3218   -1.1574 H         1 MOL         0.0345
      9 H4         -0.1611   -3.0362    0.4794 H         1 MOL         0.0378
     10 H5         -0.7076   -1.7680    1.5784 H         1 MOL         0.0378
     11 H6         -2.3650   -0.9865   -0.1342 H         1 MOL         0.0548
     12 H7         -1.8040   -2.2065   -1.2572 H         1 MOL         0.0548
     13 H8         -2.5139   -4.0145    0.3363 H         1 MOL         0.0199
     14 H9         -3.0991   -2.7668    1.4668 H         1 MOL         0.0199
     15 H10        -4.7295   -3.5752    0.1099 H         1 MOL         0.3979
@<TRIPOS>BOND
     1    1    2 1
     2    2    3 1
     3    3    4 1
     4    4    5 1
     5    1    6 1
     6    1    7 1
     7    1    8 1
     8    2    9 1
     9    2   10 1
    10    3   11 1
    11    3   12 1
    12    4   13 1
    13    4   14 1
    14    5   15 1
