@<TRIPOS>MOLECULE
1,2-dimethoxyethane
   16    15     0     0     0
SMALL
USER_CHARGES

@<TRIPOS>ATOM
      1 C1          0.3152    0.8016    2.4261 C.3       1 MOL         0.1190
      2 C2         -3.2682   -2.2457   -0.3502 C.3       1 MOL         0.1190
      3 C3         -0.8936    0.4506    0.4416 C.3       1 MOL         0.1252
      4 C4         -2.1461   -0.1936   -0.1209 C.3       1 MOL         0.1252
      5 O1         -0.8526    0.2362    1.8472 O.3       1 MOL        -0.4259
      6 O2         -2.1048   -1.5918    0.1373 O.3       1 MOL        -0.4259
      7 H1          0.3139    0.6186    3.5034 H         1 MOL         0.0339
      8 H2          0.3373    1.8762    2.2283 H         1 MOL         0.0339
      9 H3          1.1956    0.3328    1.9803 H         1 MOL         0.0339
     10 H4         -3.2030   -3.3151   -0.1354 H         1 MOL         0.0339
     11 H5         -3.3535   -2.0842   -1.4277 H         1 MOL         0.0339
     12 H6         -4.1459   -1.8289    0.1494 H         1 MOL         0.0339
     13 H7         -0.8901    1.5299    0.2612 H         1 MOL         0.0400
     14 H8          0.0000    0.0000    0.0000 H         1 MOL         0.0400
     15 H9         -2.2121   -0.0487   -1.2038 H         1 MOL         0.0400
     16 H10        -3.0378    0.2178    0.3611 H         1 MOL         0.0400
@<TRIPOS>BOND
     1    1    5 1
     2    2    6 1
     3    3    4 1
     4    3    5 1
     5    4    6 1
     6    1    7 1
     7    1    8 1
     8    1    9 1
     9    2   10 1
    10    2   11 1
    11    2   12 1
    12    3   13 1
    13    3   14 1
    14    4   15 1
    15    4   16 1
