@<TRIPOS>MOLECULE
4-bromophenol
   13    13     0     0     0
SMALL
USER_CHARGES

@<TRIPOS>ATOM
      1 C1          1.8851   -1.0363   -0.1124 C.ar      1 MOL        -0.1871
      2 C2          2.8783   -1.6520    2.0022 C.ar      1 MOL        -0.1871
      3 C3          0.8066   -0.4630    0.5610 C.ar      1 MOL        -0.0660
      4 C4          1.7997   -1.0786    2.6757 C.ar      1 MOL        -0.0660
      5 C5          2.9210   -1.6309    0.6081 C.ar      1 MOL         0.1376
      6 C6          0.7638   -0.4841    1.9551 C.ar      1 MOL        -0.0650
      7 O1          3.9732   -2.1907   -0.0492 O.3       1 MOL        -0.4933
      8 Br1        -0.6964    0.2945    2.8679 Br        1 MOL        -0.0883
      9 H1          1.9124   -1.0171   -1.1985 H         1 MOL         0.1479
     10 H2          3.6819   -2.1146    2.5688 H         1 MOL         0.1479
     11 H3          0.0074   -0.0040   -0.0154 H         1 MOL         0.1487
     12 H4          1.7820   -1.1035    3.7621 H         1 MOL         0.1487
     13 H5          4.6076   -2.5609    0.5851 H         1 MOL         0.4221
@<TRIPOS>BOND
     1    1    3 ar
     2    1    5 ar
     3    2    4 ar
     4    2    5 ar
     5    3    6 ar
     6    4    6 ar
     7    5    7 1
     8    6    8 1
     9    1    9 1
    10    2   10 1
    11    3   11 1
    12    4   12 1
    13    7   13 1
