@<TRIPOS>MOLECULE
5-(2,4-difluorophenyl)-2-hydroxy-benzoic acid
   26    27     0     0     0
SMALL
USER_CHARGES

@<TRIPOS>ATOM
      1 C1          1.8851   -1.0363   -0.1124 C.ar      1 MOL        -0.0437
      2 C2          4.8326   -1.4381   -0.9260 C.ar      1 MOL        -0.0702
      3 C3          0.8066   -0.4630    0.5610 C.ar      1 MOL        -0.2222
      4 C4          5.9125   -2.0066   -1.6015 C.ar      1 MOL        -0.1806
      5 C5          2.8783   -1.6520    2.0022 C.ar      1 MOL        -0.0331
      6 C6          5.4063   -4.1495   -0.6071 C.ar      1 MOL        -0.2083
      7 C7          2.9210   -1.6309    0.6081 C.ar      1 MOL        -0.0868
      8 C8          4.0396   -2.2253   -0.0910 C.ar      1 MOL        -0.0861
      9 C9          1.7997   -1.0786    2.6757 C.ar      1 MOL        -0.1510
     10 C10         0.7638   -0.4841    1.9551 C.ar      1 MOL         0.1808
     11 C11         6.1993   -3.3623   -1.4420 C.ar      1 MOL         0.1560
     12 C12         4.3264   -3.5810    0.0684 C.ar      1 MOL         0.1637
     13 C13         1.7743   -1.1106    4.1314 C.2       1 MOL         0.6651
     14 O1          1.2413   -0.2646    4.8550 O.2       1 MOL        -0.5277
     15 O2         -0.2976    0.0826    2.5945 O.3       1 MOL        -0.4787
     16 O3          2.4145   -2.1992    4.6374 O.3       1 MOL        -0.6047
     17 F1          7.2356   -3.9080   -2.0918 F         1 MOL        -0.1326
     18 F2          3.5740   -4.3510    0.8683 F         1 MOL        -0.1296
     19 H1          1.9043   -1.0115   -1.1993 H         1 MOL         0.1469
     20 H2          4.6225   -0.3796   -1.0602 H         1 MOL         0.1511
     21 H3          0.0029   -0.0008   -0.0057 H         1 MOL         0.1439
     22 H4          6.5311   -1.3938   -2.2506 H         1 MOL         0.1559
     23 H5          3.6852   -2.1151    2.5672 H         1 MOL         0.1537
     24 H6          5.6296   -5.2049   -0.4832 H         1 MOL         0.1676
     25 H7         -0.9214    0.4485    1.9482 H         1 MOL         0.4283
     26 H8          2.4022   -2.2304    5.6178 H         1 MOL         0.4424
@<TRIPOS>BOND
     1    1    3 ar
     2    1    7 ar
     3    2    4 ar
     4    2    8 ar
     5    3   10 ar
     6    4   11 ar
     7    5    7 ar
     8    5    9 ar
     9    6   11 ar
    10    6   12 ar
    11    7    8 1
    12    8   12 ar
    13    9   10 ar
    14    9   13 1
    15   10   15 1
    16   11   17 1
    17   12   18 1
    18   13   14 2
    19   13   16 1
    20    1   19 1
    21    2   20 1
    22    3   21 1
    23    4   22 1
    24    5   23 1
    25    6   24 1
    26   15   25 1
    27   16   26 1
