@<TRIPOS>MOLECULE
methyl formate
    8     7     0     0     0
SMALL
USER_CHARGES

@<TRIPOS>ATOM
      1 C1          1.5117   -0.9362   -1.9766 C.2       1 MOL         0.6259
      2 C2          0.3499   -1.0344    0.0714 C.3       1 MOL         0.1220
      3 O1          0.5335   -0.5918   -2.6212 O.2       1 MOL        -0.5383
      4 O2          1.5789   -1.1921   -0.6447 O.3       1 MOL        -0.4470
      5 H1          2.5112   -1.0903   -2.4120 H         1 MOL         0.0818
      6 H2          0.5111   -1.2625    1.1278 H         1 MOL         0.0519
      7 H3         -0.4048   -1.7055   -0.3463 H         1 MOL         0.0519
      8 H4          0.0106   -0.0006   -0.0282 H         1 MOL         0.0519
@<TRIPOS>BOND
     1    1    3 2
     2    1    4 1
     3    2    4 1
     4    1    5 1
     5    2    6 1
     6    2    7 1
     7    2    8 1
