@<TRIPOS>MOLECULE
(2S,5S)-2,5-dimethyltetrahydrofuran
   19    19     0     0     0
SMALL
USER_CHARGES

@<TRIPOS>ATOM
      1 C1          0.4379    1.1032   -0.8866 C.3       1 MOL        -0.1085
      2 C2         -0.9465    1.1034   -0.2868 C.3       1 MOL        -0.1085
      3 C3          1.1657    0.1344    0.0305 C.3       1 MOL         0.1353
      4 C4         -1.1147   -0.3595    0.0889 C.3       1 MOL         0.1353
      5 C5          2.3395   -0.5598   -0.6326 C.3       1 MOL        -0.0980
      6 C6         -2.0749   -0.5808    1.2417 C.3       1 MOL        -0.0980
      7 O1          0.1931   -0.8409    0.4448 O.3       1 MOL        -0.4286
      8 H1          0.3956    0.7194   -1.9130 H         1 MOL         0.0548
      9 H2          0.9009    2.0936   -0.9106 H         1 MOL         0.0548
     10 H3         -0.9629    1.7440    0.6035 H         1 MOL         0.0548
     11 H4         -1.7187    1.4562   -0.9761 H         1 MOL         0.0548
     12 H5          1.5061    0.6531    0.9345 H         1 MOL         0.0450
     13 H6         -1.4442   -0.9381   -0.7826 H         1 MOL         0.0450
     14 H7          2.0123   -1.0807   -1.5354 H         1 MOL         0.0436
     15 H8          2.7835   -1.2895    0.0485 H         1 MOL         0.0436
     16 H9          3.1050    0.1690   -0.9093 H         1 MOL         0.0436
     17 H10        -1.7567   -0.0088    2.1164 H         1 MOL         0.0436
     18 H11        -2.1078   -1.6390    1.5109 H         1 MOL         0.0436
     19 H12        -3.0819   -0.2607    0.9640 H         1 MOL         0.0436
@<TRIPOS>BOND
     1    1    2 1
     2    1    3 1
     3    2    4 1
     4    3    5 1
     5    3    7 1
     6    4    6 1
     7    4    7 1
     8    1    8 1
     9    1    9 1
    10    2   10 1
    11    2   11 1
    12    3   12 1
    13    4   13 1
    14    5   14 1
    15    5   15 1
    16    5   16 1
    17    6   17 1
    18    6   18 1
    19    6   19 1
