@<TRIPOS>MOLECULE
(2S)-2-(4-isobutylphenyl)propanoic acid
   33    33     0     0     0
SMALL
USER_CHARGES

@<TRIPOS>ATOM
      1 C1         -0.6119    2.1906   -0.8108 C.ar      1 MOL        -0.1286
      2 C2         -2.5147    3.1790    0.3024 C.ar      1 MOL        -0.1286
      3 C3         -1.1644    2.5207   -2.0483 C.ar      1 MOL        -0.1068
      4 C4         -3.0672    3.5092   -0.9351 C.ar      1 MOL        -0.1068
      5 C5         -1.2871    2.5197    0.3646 C.ar      1 MOL        -0.0640
      6 C6         -2.3920    3.1800   -2.1105 C.ar      1 MOL        -0.0928
      7 C7         -4.3156    2.8260   -3.6930 C.2       1 MOL         0.6335
      8 C8         -3.1688    5.0506   -3.6436 C.3       1 MOL        -0.0894
      9 C9         -0.6890   -0.3466    1.2673 C.3       1 MOL        -0.0927
     10 C10        -0.4958    0.5291    3.6038 C.3       1 MOL        -0.0927
     11 C11        -0.6900    2.1628    1.7040 C.3       1 MOL        -0.0353
     12 C12        -2.9812    3.5342   -3.4340 C.3       1 MOL        -0.0514
     13 C13        -1.1090    0.7732    2.2227 C.3       1 MOL        -0.0615
     14 O1         -4.8619    2.0699   -2.9001 O.2       1 MOL        -0.5388
     15 O2         -4.8438    3.1123   -4.9123 O.3       1 MOL        -0.6160
     16 H1          0.3448    1.6763   -0.7719 H         1 MOL         0.1339
     17 H2         -3.0470    3.4403    1.2134 H         1 MOL         0.1339
     18 H3         -0.6306    2.2618   -2.9588 H         1 MOL         0.1326
     19 H4         -4.0242    4.0228   -0.9745 H         1 MOL         0.1326
     20 H5         -3.8389    5.4823   -2.8919 H         1 MOL         0.0509
     21 H6         -2.2059    5.5694   -3.5819 H         1 MOL         0.0509
     22 H7         -3.6062    5.2756   -4.6226 H         1 MOL         0.0509
     23 H8          0.3964   -0.3578    1.1207 H         1 MOL         0.0351
     24 H9         -1.1641   -0.2335    0.2879 H         1 MOL         0.0351
     25 H10        -0.9858   -1.3243    1.6621 H         1 MOL         0.0351
     26 H11         0.5980    0.5553    3.5543 H         1 MOL         0.0351
     27 H12        -0.8208    1.2887    4.3231 H         1 MOL         0.0351
     28 H13        -0.7877   -0.4527    3.9913 H         1 MOL         0.0351
     29 H14         0.4049    2.2283    1.6541 H         1 MOL         0.0476
     30 H15        -0.9979    2.9351    2.4218 H         1 MOL         0.0476
     31 H16        -2.2953    3.1901   -4.2328 H         1 MOL         0.0854
     32 H17        -2.2005    0.7362    2.3312 H         1 MOL         0.0518
     33 H18        -5.6956    2.6707   -5.1155 H         1 MOL         0.4431
@<TRIPOS>BOND
     1    1    3 ar
     2    1    5 ar
     3    2    4 ar
     4    2    5 ar
     5    3    6 ar
     6    4    6 ar
     7    5   11 1
     8    6   12 1
     9    7   12 1
    10    7   14 2
    11    7   15 1
    12    8   12 1
    13    9   13 1
    14   10   13 1
    15   11   13 1
    16    1   16 1
    17    2   17 1
    18    3   18 1
    19    4   19 1
    20    8   20 1
    21    8   21 1
    22    8   22 1
    23    9   23 1
    24    9   24 1
    25    9   25 1
    26   10   26 1
    27   10   27 1
    28   10   28 1
    29   11   29 1
    30   11   30 1
    31   12   31 1
    32   13   32 1
    33   15   33 1
