@<TRIPOS>MOLECULE
(3R)-2-methylpentan-3-ol
   21    20     0     0     0
SMALL
USER_CHARGES

@<TRIPOS>ATOM
      1 C1          3.2784    0.1292   -0.4291 C.3       1 MOL        -0.0967
      2 C2         -0.5382    1.5305    1.5085 C.3       1 MOL        -0.0897
      3 C3          0.8078    3.2558    2.7130 C.3       1 MOL        -0.0897
      4 C4          1.9819    0.8864   -0.1674 C.3       1 MOL        -0.1176
      5 C5          0.6961    2.4338    1.4237 C.3       1 MOL        -0.0613
      6 C6          2.0054    1.6542    1.1619 C.3       1 MOL         0.1467
      7 O1          3.1027    2.5655    1.1730 O.3       1 MOL        -0.6031
      8 H1          3.4711   -0.5771    0.3850 H         1 MOL         0.0349
      9 H2          4.1341    0.8082   -0.4898 H         1 MOL         0.0349
     10 H3          3.2198   -0.4388   -1.3629 H         1 MOL         0.0349
     11 H4         -0.4442    0.8035    2.3206 H         1 MOL         0.0364
     12 H5         -1.4528    2.1097    1.6720 H         1 MOL         0.0364
     13 H6         -0.6644    0.9629    0.5800 H         1 MOL         0.0364
     14 H7          0.9609    2.6007    3.5774 H         1 MOL         0.0364
     15 H8         -0.1089    3.8278    2.8896 H         1 MOL         0.0364
     16 H9          1.6461    3.9594    2.6729 H         1 MOL         0.0364
     17 H10         1.8137    1.5846   -0.9954 H         1 MOL         0.0512
     18 H11         1.1647    0.1564   -0.1712 H         1 MOL         0.0512
     19 H12         0.5444    3.1381    0.5954 H         1 MOL         0.0582
     20 H13         2.1569    0.9449    1.9854 H         1 MOL         0.0298
     21 H14         3.9049    2.0313    1.0696 H         1 MOL         0.3982
@<TRIPOS>BOND
     1    1    4 1
     2    2    5 1
     3    3    5 1
     4    4    6 1
     5    5    6 1
     6    6    7 1
     7    1    8 1
     8    1    9 1
     9    1   10 1
    10    2   11 1
    11    2   12 1
    12    2   13 1
    13    3   14 1
    14    3   15 1
    15    3   16 1
    16    4   17 1
    17    4   18 1
    18    5   19 1
    19    6   20 1
    20    7   21 1
