@<TRIPOS>MOLECULE
2-iodopropane
   11    10     0     0     0
SMALL
USER_CHARGES

@<TRIPOS>ATOM
      1 C1         -0.2701   -0.5443   -1.1412 C.3       1 MOL        -0.0928
      2 C2          0.2417    1.0079    0.7727 C.3       1 MOL        -0.0928
      3 C3         -0.1818   -0.4030    0.3755 C.3       1 MOL         0.1001
      4 I1          1.2321   -1.8337    1.1580 I         1 MOL        -0.2666
      5 H1          0.6961   -0.3399   -1.6155 H         1 MOL         0.0463
      6 H2         -0.5645   -1.5630   -1.4156 H         1 MOL         0.0463
      7 H3         -1.0066    0.1438   -1.5711 H         1 MOL         0.0463
      8 H4          1.2235    1.2589    0.3563 H         1 MOL         0.0463
      9 H5          0.3118    1.0959    1.8622 H         1 MOL         0.0463
     10 H6         -0.4733    1.7604    0.4218 H         1 MOL         0.0463
     11 H7         -1.1655   -0.6149    0.8103 H         1 MOL         0.0745
@<TRIPOS>BOND
     1    1    3 1
     2    2    3 1
     3    3    4 1
     4    1    5 1
     5    1    6 1
     6    1    7 1
     7    2    8 1
     8    2    9 1
     9    2   10 1
    10    3   11 1
