@<TRIPOS>MOLECULE
[(1S)-1-methyl-2-nitrooxy-ethyl] nitrate
   17    16     0     0     0
SMALL
USER_CHARGES

@<TRIPOS>ATOM
      1 C1         -0.4238    0.8108    0.6004 C.3       1 MOL        -0.1302
      2 C2         -0.8754    1.6440    2.9312 C.3       1 MOL         0.1244
      3 C3         -0.1831    0.5832    2.0850 C.3       1 MOL         0.1431
      4 N1         -1.1954    2.3369    5.1846 N.pl3     1 MOL         0.3816
      5 N2          0.1487   -1.7725    2.1101 N.pl3     1 MOL         0.3778
      6 O1         -1.8530    3.1926    4.5911 O.3       1 MOL        -0.1664
      7 O2          1.1890   -1.4001    1.5659 O.3       1 MOL        -0.1599
      8 O3         -1.0005    2.1953    6.3940 O.2       1 MOL        -0.1664
      9 O4         -0.2271   -2.9137    2.3878 O.2       1 MOL        -0.1599
     10 O5         -0.5924    1.3973    4.3044 O.3       1 MOL        -0.3508
     11 O6         -0.7096   -0.6923    2.4478 O.3       1 MOL        -0.3609
     12 H1         -1.4974    0.8254    0.3837 H         1 MOL         0.0667
     13 H2          0.0100    1.7589    0.2680 H         1 MOL         0.0667
     14 H3          0.0060   -0.0016    0.0041 H         1 MOL         0.0667
     15 H4         -0.5090    2.6468    2.6875 H         1 MOL         0.0863
     16 H5         -1.9610    1.6089    2.7966 H         1 MOL         0.0863
     17 H6          0.8907    0.5686    2.3018 H         1 MOL         0.0949
@<TRIPOS>BOND
     1    1    3 1
     2    2    3 1
     3    2   10 1
     4    3   11 1
     5    4    6 1
     6    4    8 2
     7    4   10 1
     8    5    7 1
     9    5    9 2
    10    5   11 1
    11    1   12 1
    12    1   13 1
    13    1   14 1
    14    2   15 1
    15    2   16 1
    16    3   17 1
