@<TRIPOS>MOLECULE
2,3-dimethylbuta-1,3-diene
   16    15     0     0     0
SMALL
USER_CHARGES

@<TRIPOS>ATOM
      1 C1         -0.2101    1.5498    0.9966 C.2       1 MOL        -0.2177
      2 C2         -2.6984   -0.1663    1.3681 C.2       1 MOL        -0.2176
      3 C3         -0.4086    0.3016    0.5347 C.2       1 MOL        -0.0766
      4 C4         -1.4612   -0.5919    1.0530 C.2       1 MOL        -0.0766
      5 C5          0.4907   -0.2050   -0.5676 C.3       1 MOL        -0.0606
      6 C6         -1.1384   -2.0551    1.2414 C.3       1 MOL        -0.0606
      7 H1          0.5633    2.2071    0.6162 H         1 MOL         0.1139
      8 H2         -0.8306    1.9604    1.7878 H         1 MOL         0.1139
      9 H3         -3.4482   -0.8540    1.7480 H         1 MOL         0.1139
     10 H4         -3.0155    0.8651    1.2645 H         1 MOL         0.1139
     11 H5          1.3850   -0.7036   -0.1765 H         1 MOL         0.0423
     12 H6          0.8369    0.6220   -1.1972 H         1 MOL         0.0423
     13 H7         -0.0336   -0.9360   -1.1927 H         1 MOL         0.0423
     14 H8         -1.3650   -2.6235    0.3327 H         1 MOL         0.0423
     15 H9         -0.0779   -2.2201    1.4641 H         1 MOL         0.0423
     16 H10        -1.7083   -2.4746    2.0777 H         1 MOL         0.0423
@<TRIPOS>BOND
     1    1    3 2
     2    2    4 2
     3    3    4 1
     4    3    5 1
     5    4    6 1
     6    1    7 1
     7    1    8 1
     8    2    9 1
     9    2   10 1
    10    5   11 1
    11    5   12 1
    12    5   13 1
    13    6   14 1
    14    6   15 1
    15    6   16 1
