@<TRIPOS>MOLECULE
1,2,3,4-tetrachloro-5-phenyl-benzene
   22    23     0     0     0
SMALL
USER_CHARGES

@<TRIPOS>ATOM
      1 C1          1.8851   -1.0363   -0.1124 C.ar      1 MOL        -0.1195
      2 C2          0.8066   -0.4630    0.5610 C.ar      1 MOL        -0.1306
      3 C3          2.9210   -1.6309    0.6081 C.ar      1 MOL        -0.1306
      4 C4          0.7638   -0.4841    1.9551 C.ar      1 MOL        -0.1043
      5 C5          2.8783   -1.6520    2.0022 C.ar      1 MOL        -0.1043
      6 C6          1.1388   -2.1911    4.7353 C.ar      1 MOL        -0.1009
      7 C7          1.7997   -1.0786    2.6757 C.ar      1 MOL        -0.0599
      8 C8          1.7549   -1.1005    4.1216 C.ar      1 MOL        -0.0156
      9 C9          1.0682   -2.2603    6.1267 C.ar      1 MOL         0.0200
     10 C10         2.3006   -0.0792    4.8993 C.ar      1 MOL         0.0326
     11 C11         1.6139   -1.2390    6.9044 C.ar      1 MOL         0.0226
     12 C12         2.2301   -0.1484    6.2907 C.ar      1 MOL         0.0197
     13 Cl1         0.2875   -3.6441    6.8135 Cl        1 MOL        -0.0557
     14 Cl2         3.0662    1.2729    4.1119 Cl        1 MOL        -0.0454
     15 Cl3         1.5165   -1.3384    8.6397 Cl        1 MOL        -0.0393
     16 Cl4         2.9132    1.1280    7.2604 Cl        1 MOL        -0.0398
     17 H1          1.9174   -1.0212   -1.1979 H         1 MOL         0.1334
     18 H2         -0.0009   -0.0015    0.0001 H         1 MOL         0.1363
     19 H3          3.7605   -2.0787    0.0844 H         1 MOL         0.1363
     20 H4         -0.0840   -0.0332    2.4655 H         1 MOL         0.1401
     21 H5          3.6927   -2.1196    2.5504 H         1 MOL         0.1401
     22 H6          0.7130   -2.9883    4.1281 H         1 MOL         0.1650
@<TRIPOS>BOND
     1    1    2 ar
     2    1    3 ar
     3    2    4 ar
     4    3    5 ar
     5    4    7 ar
     6    5    7 ar
     7    6    8 ar
     8    6    9 ar
     9    7    8 1
    10    8   10 ar
    11    9   11 ar
    12    9   13 1
    13   10   12 ar
    14   10   14 1
    15   11   12 ar
    16   11   15 1
    17   12   16 1
    18    1   17 1
    19    2   18 1
    20    3   19 1
    21    4   20 1
    22    5   21 1
    23    6   22 1
