@<TRIPOS>MOLECULE
N-methyl-N-(2,2,2-trifluoroethyl)aniline
   23    23     0     0     0
SMALL
USER_CHARGES

@<TRIPOS>ATOM
      1 C1          1.8839   -1.0361   -0.1125 C.ar      1 MOL        -0.1765
      2 C2          2.7462   -0.2237    0.6237 C.ar      1 MOL        -0.0877
      3 C3          0.9795   -1.8698    0.5454 C.ar      1 MOL        -0.0877
      4 C4          2.7041   -0.2450    2.0178 C.ar      1 MOL        -0.1989
      5 C5          0.9374   -1.8911    1.9394 C.ar      1 MOL        -0.1989
      6 C6          1.7997   -1.0786    2.6757 C.ar      1 MOL         0.1916
      7 C7          0.8206   -1.9632    4.7779 C.3       1 MOL         0.2098
      8 C8          2.6580   -0.2703    4.8598 C.3       1 MOL         0.2099
      9 C9          2.0769    1.0985    5.1100 C.3       1 MOL         0.6170
     10 N1          1.7568   -1.1003    4.0852 N.pl3     1 MOL        -0.7139
     11 F1          2.9343    1.8505    5.8353 F         1 MOL        -0.2344
     12 F2          1.8379    1.7519    3.9530 F         1 MOL        -0.2344
     13 F3          0.9171    1.0237    5.7968 F         1 MOL        -0.2344
     14 H1          1.9169   -1.0196   -1.1981 H         1 MOL         0.1306
     15 H2          3.4502    0.4251    0.1115 H         1 MOL         0.1320
     16 H3          0.3081   -2.5024   -0.0282 H         1 MOL         0.1320
     17 H4          3.3803    0.3919    2.5823 H         1 MOL         0.1320
     18 H5          0.2283   -2.5446    2.4412 H         1 MOL         0.1320
     19 H6          0.9311   -1.8462    5.8591 H         1 MOL         0.0453
     20 H7          1.0054   -3.0086    4.5162 H         1 MOL         0.0453
     21 H8         -0.2055   -1.7083    4.4994 H         1 MOL         0.0453
     22 H9          2.8534   -0.7857    5.8048 H         1 MOL         0.0719
     23 H10         3.5980   -0.1953    4.3053 H         1 MOL         0.0719
@<TRIPOS>BOND
     1    1    2 ar
     2    1    3 ar
     3    2    4 ar
     4    3    5 ar
     5    4    6 ar
     6    5    6 ar
     7    6   10 1
     8    7   10 1
     9    8    9 1
    10    8   10 1
    11    9   11 1
    12    9   12 1
    13    9   13 1
    14    1   14 1
    15    2   15 1
    16    3   16 1
    17    4   17 1
    18    5   18 1
    19    7   19 1
    20    7   20 1
    21    7   21 1
    22    8   22 1
    23    8   23 1
