@<TRIPOS>MOLECULE
isoprene
   13    12     0     0     0
SMALL
USER_CHARGES

@<TRIPOS>ATOM
      1 C1         -0.1320   -0.3173    1.0280 C.2       1 MOL        -0.2112
      2 C2         -0.9685   -3.9040    0.9358 C.2       1 MOL        -0.2146
      3 C3         -0.4458   -1.5741    1.3661 C.2       1 MOL        -0.1296
      4 C4         -0.6566   -2.6892    0.4542 C.2       1 MOL        -0.0795
      5 C5         -0.5216   -2.4669   -1.0269 C.3       1 MOL        -0.0626
      6 H1          0.0010    0.4342    1.7998 H         1 MOL         0.1127
      7 H2         -0.0001    0.0000   -0.0000 H         1 MOL         0.1127
      8 H3         -1.1296   -4.7487    0.2734 H         1 MOL         0.1131
      9 H4         -1.0719   -4.0913    2.0002 H         1 MOL         0.1131
     10 H5         -0.5555   -1.7884    2.4280 H         1 MOL         0.1178
     11 H6         -1.4824   -2.1759   -1.4649 H         1 MOL         0.0426
     12 H7         -0.1890   -3.3714   -1.5487 H         1 MOL         0.0426
     13 H8          0.2146   -1.6834   -1.2364 H         1 MOL         0.0426
@<TRIPOS>BOND
     1    1    3 2
     2    2    4 2
     3    3    4 1
     4    4    5 1
     5    1    6 1
     6    1    7 1
     7    2    8 1
     8    2    9 1
     9    3   10 1
    10    5   11 1
    11    5   12 1
    12    5   13 1
