@<TRIPOS>MOLECULE
octan-1-amine
   28    27     0     0     0
SMALL
USER_CHARGES

@<TRIPOS>ATOM
      1 C1          4.0693   -1.0826    3.7024 C.3       1 MOL        -0.0921
      2 C2          3.4732   -0.0336    2.7774 C.3       1 MOL        -0.0798
      3 C3          4.4806    0.4171    1.7188 C.3       1 MOL        -0.0792
      4 C4          3.8644    1.4479    0.7711 C.3       1 MOL        -0.0773
      5 C5          4.8562    2.0034   -0.2556 C.3       1 MOL        -0.0783
      6 C6          4.2826    2.9942   -1.2741 C.3       1 MOL        -0.0775
      7 C7          5.3022    3.4471   -2.3239 C.3       1 MOL        -0.0828
      8 C8          4.7268    4.4773   -3.2914 C.3       1 MOL         0.1644
      9 N1          5.6899    4.9182   -4.2621 N.3       1 MOL        -0.9257
     10 H1          4.4009   -1.9518    3.1259 H         1 MOL         0.0329
     11 H2          4.9334   -0.6835    4.2431 H         1 MOL         0.0329
     12 H3          3.3317   -1.4229    4.4363 H         1 MOL         0.0329
     13 H4          3.1477    0.8272    3.3730 H         1 MOL         0.0374
     14 H5          2.5822   -0.4474    2.2909 H         1 MOL         0.0374
     15 H6          5.3610    0.8486    2.2100 H         1 MOL         0.0388
     16 H7          4.8194   -0.4580    1.1529 H         1 MOL         0.0388
     17 H8          2.9977    1.0129    0.2604 H         1 MOL         0.0394
     18 H9          3.4808    2.2910    1.3599 H         1 MOL         0.0394
     19 H10         5.6786    2.4882    0.2852 H         1 MOL         0.0397
     20 H11         5.3025    1.1646   -0.8044 H         1 MOL         0.0397
     21 H12         3.8681    3.8673   -0.7572 H         1 MOL         0.0391
     22 H13         3.4376    2.5047   -1.7737 H         1 MOL         0.0391
     23 H14         5.6663    2.5764   -2.8827 H         1 MOL         0.0467
     24 H15         6.1666    3.8992   -1.8254 H         1 MOL         0.0467
     25 H16         4.4003    5.3652   -2.7406 H         1 MOL         0.0226
     26 H17         3.8640    4.0758   -3.8323 H         1 MOL         0.0226
     27 H18         6.6505    5.0421   -3.9819 H         1 MOL         0.3510
     28 H19         5.3675    5.2901   -5.1421 H         1 MOL         0.3510
@<TRIPOS>BOND
     1    1    2 1
     2    2    3 1
     3    3    4 1
     4    4    5 1
     5    5    6 1
     6    6    7 1
     7    7    8 1
     8    8    9 1
     9    1   10 1
    10    1   11 1
    11    1   12 1
    12    2   13 1
    13    2   14 1
    14    3   15 1
    15    3   16 1
    16    4   17 1
    17    4   18 1
    18    5   19 1
    19    5   20 1
    20    6   21 1
    21    6   22 1
    22    7   23 1
    23    7   24 1
    24    8   25 1
    25    8   26 1
    26    9   27 1
    27    9   28 1
