@<TRIPOS>MOLECULE
3-tert-butyl-5-chloro-6-methyl-1H-pyrimidine-2,4-dione
   27    27     0     0     0
SMALL
USER_CHARGES

@<TRIPOS>ATOM
      1 C1         -1.6093   -2.3334   -1.5640 C.2       1 MOL        -0.1886
      2 C2         -1.5588   -1.2585   -0.7630 C.2       1 MOL         0.1080
      3 C3         -2.7485   -2.5146   -2.5108 C.2       1 MOL         0.7291
      4 C4         -3.6540   -0.3601   -1.6502 C.2       1 MOL         0.8105
      5 C5         -0.4766   -0.9586    0.2367 C.3       1 MOL        -0.0838
      6 C6         -4.6509   -2.8438   -4.2897 C.3       1 MOL        -0.1071
      7 C7         -6.1208   -1.5895   -2.6915 C.3       1 MOL        -0.1071
      8 C8         -4.7584   -0.3431   -4.3882 C.3       1 MOL        -0.1071
      9 C9         -4.7956   -1.5628   -3.4601 C.3       1 MOL         0.1338
     10 N1         -2.5557   -0.3133   -0.8087 N.am      1 MOL        -0.4689
     11 N2         -3.6940   -1.4779   -2.5082 N.am      1 MOL        -0.4763
     12 O1         -2.8149   -3.5184   -3.2194 O.2       1 MOL        -0.5910
     13 O2         -4.5159    0.5221   -1.6260 O.2       1 MOL        -0.6424
     14 Cl1        -0.4090   -3.5739   -1.5744 Cl        1 MOL        -0.0431
     15 H1          0.3045   -0.3756   -0.2433 H         1 MOL         0.0709
     16 H2         -0.0624   -1.8916    0.6095 H         1 MOL         0.0709
     17 H3         -0.8985   -0.3960    1.0652 H         1 MOL         0.0709
     18 H4         -3.7087   -2.8487   -4.8500 H         1 MOL         0.0519
     19 H5         -4.6682   -3.7353   -3.6531 H         1 MOL         0.0519
     20 H6         -5.4628   -2.9349   -5.0206 H         1 MOL         0.0519
     21 H7         -6.2472   -0.6819   -2.0897 H         1 MOL         0.0519
     22 H8         -6.1618   -2.4422   -2.0037 H         1 MOL         0.0519
     23 H9         -6.9758   -1.6642   -3.3726 H         1 MOL         0.0519
     24 H10        -4.8601    0.5888   -3.8200 H         1 MOL         0.0519
     25 H11        -3.8178   -0.2963   -4.9480 H         1 MOL         0.0519
     26 H12        -5.5803   -0.3718   -5.1130 H         1 MOL         0.0519
     27 H13        -2.4803    0.4791   -0.1764 H         1 MOL         0.3544
@<TRIPOS>BOND
     1    1    2 2
     2    1    3 1
     3    1   14 1
     4    2    5 1
     5    2   10 1
     6    3   11 am
     7    3   12 2
     8    4   10 am
     9    4   11 am
    10    4   13 2
    11    6    9 1
    12    7    9 1
    13    8    9 1
    14    9   11 1
    15    5   15 1
    16    5   16 1
    17    5   17 1
    18    6   18 1
    19    6   19 1
    20    6   20 1
    21    7   21 1
    22    7   22 1
    23    7   23 1
    24    8   24 1
    25    8   25 1
    26    8   26 1
    27   10   27 1
