@<TRIPOS>MOLECULE
2-methoxy-4-propyl-phenol
   26    26     0     0     0
SMALL
USER_CHARGES

@<TRIPOS>ATOM
      1 C1          1.8851   -1.0363   -0.1124 C.ar      1 MOL        -0.1235
      2 C2          0.8066   -0.4630    0.5610 C.ar      1 MOL        -0.1846
      3 C3          2.8783   -1.6520    2.0022 C.ar      1 MOL        -0.1755
      4 C4          2.9210   -1.6309    0.6081 C.ar      1 MOL        -0.0764
      5 C5          0.7638   -0.4841    1.9551 C.ar      1 MOL         0.0984
      6 C6          1.7997   -1.0786    2.6757 C.ar      1 MOL         0.1013
      7 C7          4.9906   -4.3458   -1.1950 C.3       1 MOL        -0.0945
      8 C8          2.8671   -1.7314    4.6981 C.3       1 MOL         0.1097
      9 C9          4.0730   -2.2461   -0.1119 C.3       1 MOL        -0.0342
     10 C10         3.8297   -3.7291   -0.4309 C.3       1 MOL        -0.0777
     11 O1         -0.2952    0.0794    2.6009 O.3       1 MOL        -0.4754
     12 O2          1.7695   -1.1047    4.0374 O.3       1 MOL        -0.3039
     13 H1          1.9092   -1.0167   -1.1987 H         1 MOL         0.1322
     14 H2          0.0033   -0.0012   -0.0065 H         1 MOL         0.1366
     15 H3          3.6842   -2.1153    2.5663 H         1 MOL         0.1405
     16 H4          5.1731   -3.8089   -2.1314 H         1 MOL         0.0334
     17 H5          5.9089   -4.3218   -0.5996 H         1 MOL         0.0334
     18 H6          4.7715   -5.3899   -1.4396 H         1 MOL         0.0334
     19 H7          2.7181   -1.6831    5.7796 H         1 MOL         0.0436
     20 H8          3.7959   -1.2244    4.4246 H         1 MOL         0.0436
     21 H9          2.9196   -2.7772    4.3863 H         1 MOL         0.0436
     22 H10         4.2764   -1.7043   -1.0514 H         1 MOL         0.0473
     23 H11         4.9969   -2.1530    0.4842 H         1 MOL         0.0473
     24 H12         3.6743   -4.2893    0.4992 H         1 MOL         0.0441
     25 H13         2.9127   -3.8372   -1.0227 H         1 MOL         0.0441
     26 H14        -0.9227    0.4462    1.9585 H         1 MOL         0.4131
@<TRIPOS>BOND
     1    1    2 ar
     2    1    4 ar
     3    2    5 ar
     4    3    4 ar
     5    3    6 ar
     6    4    9 1
     7    5    6 ar
     8    5   11 1
     9    6   12 1
    10    7   10 1
    11    8   12 1
    12    9   10 1
    13    1   13 1
    14    2   14 1
    15    3   15 1
    16    7   16 1
    17    7   17 1
    18    7   18 1
    19    8   19 1
    20    8   20 1
    21    8   21 1
    22    9   22 1
    23    9   23 1
    24   10   24 1
    25   10   25 1
    26   11   26 1
