@<TRIPOS>MOLECULE
1,4-dimethylnaphthalene
   24    25     0     0     0
SMALL
USER_CHARGES

@<TRIPOS>ATOM
      1 C1         -0.4966   -2.0341    0.4940 C.ar      1 MOL        -0.1299
      2 C2          0.3500   -1.0275    0.0392 C.ar      1 MOL        -0.1297
      3 C3         -0.0479   -3.3542    0.5448 C.ar      1 MOL        -0.1193
      4 C4          1.6484   -1.3369   -0.3665 C.ar      1 MOL        -0.1193
      5 C5          3.0228   -5.3167   -0.2210 C.ar      1 MOL        -0.1282
      6 C6          3.8693   -4.3100   -0.6758 C.ar      1 MOL        -0.1282
      7 C7          1.2560   -3.6839    0.1403 C.ar      1 MOL        -0.0273
      8 C8          2.1168   -2.6602   -0.3222 C.ar      1 MOL        -0.0273
      9 C9          1.7243   -5.0072    0.1848 C.ar      1 MOL        -0.0682
     10 C10         3.4207   -2.9899   -0.7267 C.ar      1 MOL        -0.0682
     11 C11         0.8668   -6.1375    0.6632 C.3       1 MOL        -0.0553
     12 C12         4.3827   -1.9565   -1.2250 C.3       1 MOL        -0.0553
     13 H1         -1.5071   -1.7917    0.8102 H         1 MOL         0.1307
     14 H2         -0.0001    0.0000    0.0001 H         1 MOL         0.1307
     15 H3         -0.7391   -4.1128    0.9049 H         1 MOL         0.1325
     16 H4          2.2790   -0.5223   -0.7154 H         1 MOL         0.1325
     17 H5          3.3832   -6.3416   -0.1863 H         1 MOL         0.1308
     18 H6          4.8791   -4.5639   -0.9885 H         1 MOL         0.1308
     19 H7          0.9875   -6.2701    1.7433 H         1 MOL         0.0447
     20 H8         -0.1903   -5.9470    0.4472 H         1 MOL         0.0447
     21 H9          1.1350   -7.0736    0.1607 H         1 MOL         0.0447
     22 H10         4.2891   -1.8478   -2.3104 H         1 MOL         0.0447
     23 H11         4.1931   -0.9848   -0.7555 H         1 MOL         0.0447
     24 H12         5.4154   -2.2339   -0.9860 H         1 MOL         0.0447
@<TRIPOS>BOND
     1    1    2 ar
     2    1    3 ar
     3    2    4 ar
     4    3    7 ar
     5    4    8 ar
     6    5    6 ar
     7    5    9 ar
     8    6   10 ar
     9    7    8 ar
    10    7    9 ar
    11    8   10 ar
    12    9   11 1
    13   10   12 1
    14    1   13 1
    15    2   14 1
    16    3   15 1
    17    4   16 1
    18    5   17 1
    19    6   18 1
    20   11   19 1
    21   11   20 1
    22   11   21 1
    23   12   22 1
    24   12   23 1
    25   12   24 1
