@<TRIPOS>MOLECULE
(2S)-1,2-dichloropropane
   11    10     0     0     0
SMALL
USER_CHARGES

@<TRIPOS>ATOM
      1 C1          0.8719   -0.5290    0.4006 C.3       1 MOL        -0.1067
      2 C2          0.2164   -0.2402    2.8566 C.3       1 MOL         0.0249
      3 C3          1.2565    0.0257    1.7670 C.3       1 MOL         0.0472
      4 Cl1        -0.1002   -1.9708    3.1373 Cl        1 MOL        -0.1833
      5 Cl2         2.8548   -0.6173    2.2521 Cl        1 MOL        -0.1894
      6 H1          0.7259   -1.6139    0.4186 H         1 MOL         0.0558
      7 H2         -0.0613   -0.0759    0.0481 H         1 MOL         0.0558
      8 H3          1.6476   -0.3036   -0.3389 H         1 MOL         0.0558
      9 H4          0.5515    0.1819    3.8095 H         1 MOL         0.0796
     10 H5         -0.7399    0.2295    2.6040 H         1 MOL         0.0796
     11 H6          1.3857    1.1097    1.6751 H         1 MOL         0.0810
@<TRIPOS>BOND
     1    1    3 1
     2    2    3 1
     3    2    4 1
     4    3    5 1
     5    1    6 1
     6    1    7 1
     7    1    8 1
     8    2    9 1
     9    2   10 1
    10    3   11 1
