@<TRIPOS>MOLECULE
(2S)-butan-2-ol
   15    14     0     0     0
SMALL
USER_CHARGES

@<TRIPOS>ATOM
      1 C1          0.9784   -0.0326   -0.2360 C.3       1 MOL        -0.0899
      2 C2          1.0608    0.9421   -3.9925 C.3       1 MOL        -0.1308
      3 C3          1.4098    0.6794   -1.5114 C.3       1 MOL        -0.0726
      4 C4          0.6395    0.1877   -2.7386 C.3       1 MOL         0.1389
      5 O1         -0.7550    0.3897   -2.5267 O.3       1 MOL        -0.6009
      6 H1         -0.0930    0.1019   -0.0565 H         1 MOL         0.0376
      7 H2          1.5239    0.3435    0.6351 H         1 MOL         0.0376
      8 H3          1.1759   -1.1062   -0.3184 H         1 MOL         0.0376
      9 H4          0.9007    2.0196   -3.8742 H         1 MOL         0.0419
     10 H5          2.1149    0.7666   -4.2274 H         1 MOL         0.0419
     11 H6          0.4568    0.6272   -4.8504 H         1 MOL         0.0419
     12 H7          2.4847    0.5237   -1.6590 H         1 MOL         0.0451
     13 H8          1.2456    1.7551   -1.3741 H         1 MOL         0.0451
     14 H9          0.8085   -0.8858   -2.8804 H         1 MOL         0.0290
     15 H10        -1.2070    0.0442   -3.3122 H         1 MOL         0.3974
@<TRIPOS>BOND
     1    1    3 1
     2    2    4 1
     3    3    4 1
     4    4    5 1
     5    1    6 1
     6    1    7 1
     7    1    8 1
     8    2    9 1
     9    2   10 1
    10    2   11 1
    11    3   12 1
    12    3   13 1
    13    4   14 1
    14    5   15 1
