@<TRIPOS>MOLECULE
methoxymethane
    9     8     0     0     0
SMALL
USER_CHARGES

@<TRIPOS>ATOM
      1 C1         -0.6104   -0.5152    0.7482 C.3       1 MOL         0.1138
      2 C2          1.2893   -1.1660    1.9689 C.3       1 MOL         0.1138
      3 O1          0.0353   -0.4987    2.0141 O.3       1 MOL        -0.4198
      4 H1         -1.5686    0.0052    0.8203 H         1 MOL         0.0320
      5 H2         -0.7682   -1.5494    0.4320 H         1 MOL         0.0320
      6 H3          0.0241   -0.0060    0.0189 H         1 MOL         0.0320
      7 H4          1.7559   -1.1337    2.9566 H         1 MOL         0.0320
      8 H5          1.9352   -0.6803    1.2331 H         1 MOL         0.0320
      9 H6          1.1279   -2.2068    1.6786 H         1 MOL         0.0320
@<TRIPOS>BOND
     1    1    3 1
     2    2    3 1
     3    1    4 1
     4    1    5 1
     5    1    6 1
     6    2    7 1
     7    2    8 1
     8    2    9 1
