@<TRIPOS>MOLECULE
propanamide
   12    11     0     0     0
SMALL
USER_CHARGES

@<TRIPOS>ATOM
      1 C1         -0.1381   -1.7285    2.1839 C.2       1 MOL         0.6586
      2 C2          0.6297    0.2716    0.8536 C.3       1 MOL        -0.1008
      3 C3          1.0473   -0.9600    1.6362 C.3       1 MOL        -0.1553
      4 N1          0.2439   -2.8634    2.8664 N.am      1 MOL        -0.6789
      5 O1         -1.3065   -1.3815    2.0370 O.2       1 MOL        -0.6188
      6 H1         -0.0104   -0.0102    0.0120 H         1 MOL         0.0402
      7 H2          0.0738    0.9703    1.4875 H         1 MOL         0.0402
      8 H3          1.5029    0.8006    0.4576 H         1 MOL         0.0402
      9 H4          1.6871   -0.6636    2.4751 H         1 MOL         0.0773
     10 H5          1.6257   -1.6288    0.9888 H         1 MOL         0.0773
     11 H6          1.2300   -3.0897    2.9485 H         1 MOL         0.3100
     12 H7         -0.4464   -3.4760    3.2878 H         1 MOL         0.3100
@<TRIPOS>BOND
     1    1    3 1
     2    1    4 am
     3    1    5 2
     4    2    3 1
     5    2    6 1
     6    2    7 1
     7    2    8 1
     8    3    9 1
     9    3   10 1
    10    4   11 1
    11    4   12 1
