@<TRIPOS>MOLECULE
2-phenylethanol
   19    19     0     0     0
SMALL
USER_CHARGES

@<TRIPOS>ATOM
      1 C1          1.8851   -1.0363   -0.1124 C.ar      1 MOL        -0.1305
      2 C2          0.8066   -0.4630    0.5610 C.ar      1 MOL        -0.1290
      3 C3          2.9210   -1.6309    0.6081 C.ar      1 MOL        -0.1290
      4 C4          0.7638   -0.4841    1.9551 C.ar      1 MOL        -0.1257
      5 C5          2.8783   -1.6520    2.0022 C.ar      1 MOL        -0.1257
      6 C6          1.7997   -1.0786    2.6757 C.ar      1 MOL        -0.0821
      7 C7          1.7548   -1.1014    4.1663 C.3       1 MOL        -0.0419
      8 C8          2.4156    0.1206    4.8075 C.3       1 MOL         0.1351
      9 O1          1.7305    1.3000    4.4057 O.3       1 MOL        -0.6037
     10 H1          1.9176   -1.0210   -1.1980 H         1 MOL         0.1307
     11 H2         -0.0006   -0.0010    0.0001 H         1 MOL         0.1314
     12 H3          3.7604   -2.0783    0.0841 H         1 MOL         0.1314
     13 H4         -0.0804   -0.0348    2.4713 H         1 MOL         0.1320
     14 H5          3.6899   -2.1173    2.5553 H         1 MOL         0.1320
     15 H6          0.7115   -1.1700    4.5119 H         1 MOL         0.0623
     16 H7          2.2598   -2.0066    4.5369 H         1 MOL         0.0623
     17 H8          2.3545    0.0528    5.8985 H         1 MOL         0.0248
     18 H9          3.4682    0.2079    4.5186 H         1 MOL         0.0248
     19 H10         2.1819    2.0451    4.8340 H         1 MOL         0.4007
@<TRIPOS>BOND
     1    1    2 ar
     2    1    3 ar
     3    2    4 ar
     4    3    5 ar
     5    4    6 ar
     6    5    6 ar
     7    6    7 1
     8    7    8 1
     9    8    9 1
    10    1   10 1
    11    2   11 1
    12    3   12 1
    13    4   13 1
    14    5   14 1
    15    7   15 1
    16    7   16 1
    17    8   17 1
    18    8   18 1
    19    9   19 1
