@<TRIPOS>MOLECULE
propyl propanoate
   20    19     0     0     0
SMALL
USER_CHARGES

@<TRIPOS>ATOM
      1 C1         -1.6136    0.0807    4.3720 C.2       1 MOL         0.6417
      2 C2          0.0283   -1.8038    4.1101 C.3       1 MOL        -0.0939
      3 C3         -4.5262    3.9925    4.4227 C.3       1 MOL        -0.0939
      4 C4         -0.4896   -0.4939    3.5422 C.3       1 MOL        -0.1375
      5 C5         -3.4077    3.2177    3.7493 C.3       1 MOL        -0.1015
      6 C6         -3.0835    1.9309    4.4926 C.3       1 MOL         0.1503
      7 O1         -2.0821   -0.4341    5.3780 O.2       1 MOL        -0.5063
      8 O2         -2.0159    1.2612    3.8143 O.3       1 MOL        -0.4752
      9 H1          0.4064   -1.6689    5.1289 H         1 MOL         0.0472
     10 H2         -0.7716   -2.5501    4.1378 H         1 MOL         0.0472
     11 H3          0.8461   -2.2010    3.4997 H         1 MOL         0.0472
     12 H4         -5.4343    3.3856    4.4964 H         1 MOL         0.0356
     13 H5         -4.2299    4.2844    5.4351 H         1 MOL         0.0356
     14 H6         -4.7652    4.9023    3.8632 H         1 MOL         0.0356
     15 H7         -0.8598   -0.6610    2.5252 H         1 MOL         0.0777
     16 H8          0.3268    0.2354    3.5119 H         1 MOL         0.0777
     17 H9         -2.5086    3.8422    3.6853 H         1 MOL         0.0571
     18 H10        -3.6865    2.9847    2.7147 H         1 MOL         0.0571
     19 H11        -2.7664    2.1416    5.5190 H         1 MOL         0.0492
     20 H12        -3.9520    1.2650    4.5180 H         1 MOL         0.0492
@<TRIPOS>BOND
     1    1    4 1
     2    1    7 2
     3    1    8 1
     4    2    4 1
     5    3    5 1
     6    5    6 1
     7    6    8 1
     8    2    9 1
     9    2   10 1
    10    2   11 1
    11    3   12 1
    12    3   13 1
    13    3   14 1
    14    4   15 1
    15    4   16 1
    16    5   17 1
    17    5   18 1
    18    6   19 1
    19    6   20 1
