@<TRIPOS>MOLECULE
1,2,4-trichlorodibenzo-p-dioxin
   22    24     0     0     0
SMALL
USER_CHARGES

@<TRIPOS>ATOM
      1 C1         -1.8584    0.7400    0.8000 C.ar      1 MOL        -0.1243
      2 C2         -1.0039   -0.2568    0.3257 C.ar      1 MOL        -0.1244
      3 C3         -3.1487    0.4152    1.2196 C.ar      1 MOL        -0.1099
      4 C4         -1.4367   -1.5819    0.2693 C.ar      1 MOL        -0.1097
      5 C5         -6.9616   -4.1465    1.8755 C.ar      1 MOL        -0.1166
      6 C6         -3.5799   -0.9097    1.1626 C.ar      1 MOL         0.0589
      7 C7         -2.7266   -1.9051    0.6889 C.ar      1 MOL         0.0586
      8 C8         -5.2389   -2.4982    1.5123 C.ar      1 MOL         0.0781
      9 C9         -4.3856   -3.4936    1.0385 C.ar      1 MOL         0.0856
     10 C10        -6.5287   -2.8214    1.9320 C.ar      1 MOL         0.0285
     11 C11        -6.1071   -5.1433    1.4010 C.ar      1 MOL         0.0220
     12 C12        -4.8168   -4.8184    0.9815 C.ar      1 MOL         0.0223
     13 O1         -4.8561   -1.1828    1.5855 O.3       1 MOL        -0.2074
     14 O2         -3.1093   -3.2205    0.6157 O.3       1 MOL        -0.2081
     15 Cl1        -7.6135   -1.6166    2.5245 Cl        1 MOL        -0.0450
     16 Cl2        -6.7138   -6.7631    1.3602 Cl        1 MOL        -0.0536
     17 Cl3        -3.7385   -6.0421    0.3886 Cl        1 MOL        -0.0296
     18 H1         -1.5178    1.7705    0.8423 H         1 MOL         0.1424
     19 H2          0.0000   -0.0002   -0.0001 H         1 MOL         0.1429
     20 H3         -3.8084    1.1959    1.5878 H         1 MOL         0.1592
     21 H4         -0.7658   -2.3519   -0.1011 H         1 MOL         0.1593
     22 H5         -7.9677   -4.4018    2.2026 H         1 MOL         0.1709
@<TRIPOS>BOND
     1    1    2 ar
     2    1    3 ar
     3    2    4 ar
     4    3    6 ar
     5    4    7 ar
     6    5   10 ar
     7    5   11 ar
     8    6    7 ar
     9    6   13 1
    10    7   14 1
    11    8    9 ar
    12    8   10 ar
    13    8   13 1
    14    9   12 ar
    15    9   14 1
    16   10   15 1
    17   11   12 ar
    18   11   16 1
    19   12   17 1
    20    1   18 1
    21    2   19 1
    22    3   20 1
    23    4   21 1
    24    5   22 1
