@<TRIPOS>MOLECULE
methyl 4-nitrobenzoate
   20    20     0     0     0
SMALL
USER_CHARGES

@<TRIPOS>ATOM
      1 C1          1.8851   -1.0363   -0.1124 C.ar      1 MOL        -0.0998
      2 C2          2.8783   -1.6520    2.0022 C.ar      1 MOL        -0.0998
      3 C3          0.8066   -0.4630    0.5610 C.ar      1 MOL        -0.0711
      4 C4          1.7997   -1.0786    2.6757 C.ar      1 MOL        -0.0711
      5 C5          2.9210   -1.6309    0.6081 C.ar      1 MOL        -0.0679
      6 C6          0.7638   -0.4841    1.9551 C.ar      1 MOL        -0.1597
      7 C7          4.0457   -2.2282   -0.0940 C.2       1 MOL         0.6359
      8 C8          6.1159   -3.3763    0.2039 C.3       1 MOL         0.1229
      9 N1         -0.3343    0.0990    2.6405 N.pl3     1 MOL         0.3113
     10 O1         -1.2560    0.6282    1.9733 O.3       1 MOL        -0.2015
     11 O2          4.1676   -2.2555   -1.3259 O.2       1 MOL        -0.5111
     12 O3         -0.3536    0.0692    3.8948 O.2       1 MOL        -0.2015
     13 O4          4.9584   -2.7583    0.7766 O.3       1 MOL        -0.4277
     14 H1          1.9084   -1.0141   -1.1990 H         1 MOL         0.1601
     15 H2          3.6804   -2.1122    2.5736 H         1 MOL         0.1601
     16 H3          0.0055   -0.0033   -0.0127 H         1 MOL         0.1775
     17 H4          1.7791   -1.1016    3.7625 H         1 MOL         0.1775
     18 H5          6.7594   -3.7559    1.0013 H         1 MOL         0.0554
     19 H6          6.6590   -2.6452   -0.4003 H         1 MOL         0.0554
     20 H7          5.7980   -4.2066   -0.4311 H         1 MOL         0.0554
@<TRIPOS>BOND
     1    1    3 ar
     2    1    5 ar
     3    2    4 ar
     4    2    5 ar
     5    3    6 ar
     6    4    6 ar
     7    5    7 1
     8    6    9 1
     9    7   11 2
    10    7   13 1
    11    8   13 1
    12    9   10 1
    13    9   12 2
    14    1   14 1
    15    2   15 1
    16    3   16 1
    17    4   17 1
    18    8   18 1
    19    8   19 1
    20    8   20 1
