@<TRIPOS>MOLECULE
pentanoic acid
   17    16     0     0     0
SMALL
USER_CHARGES

@<TRIPOS>ATOM
      1 C1          1.6524   -1.7675    3.5067 C.2       1 MOL         0.6377
      2 C2         -2.8811   -0.8826    1.4178 C.3       1 MOL        -0.0909
      3 C3          0.8489   -0.8488    2.6143 C.3       1 MOL        -0.1271
      4 C4         -1.4435   -0.4115    1.5738 C.3       1 MOL        -0.0945
      5 C5         -0.6037   -1.3074    2.4860 C.3       1 MOL        -0.0695
      6 O1          1.2197   -2.7566    4.0816 O.2       1 MOL        -0.5495
      7 O2          2.9470   -1.3643    3.5965 O.3       1 MOL        -0.6164
      8 H1         -2.9013   -1.8937    0.9986 H         1 MOL         0.0318
      9 H2         -3.4000   -0.9132    2.3802 H         1 MOL         0.0318
     10 H3         -3.4391   -0.2253    0.7435 H         1 MOL         0.0318
     11 H4          0.8788    0.1579    3.0455 H         1 MOL         0.0805
     12 H5          1.3299   -0.8350    1.6309 H         1 MOL         0.0805
     13 H6         -1.4526    0.6012    1.9944 H         1 MOL         0.0578
     14 H7         -0.9739   -0.3397    0.5859 H         1 MOL         0.0578
     15 H8         -1.0685   -1.3182    3.4801 H         1 MOL         0.0481
     16 H9         -0.6356   -2.3414    2.1203 H         1 MOL         0.0481
     17 H10         3.5177   -1.9283    4.1614 H         1 MOL         0.4419
@<TRIPOS>BOND
     1    1    3 1
     2    1    6 2
     3    1    7 1
     4    2    4 1
     5    3    5 1
     6    4    5 1
     7    2    8 1
     8    2    9 1
     9    2   10 1
    10    3   11 1
    11    3   12 1
    12    4   13 1
    13    4   14 1
    14    5   15 1
    15    5   16 1
    16    7   17 1
