@<TRIPOS>MOLECULE
N,N-dimethylbenzamide
   22    22     0     0     0
SMALL
USER_CHARGES

@<TRIPOS>ATOM
      1 C1          1.7436   -1.1582   -0.1617 C.ar      1 MOL        -0.1186
      2 C2          0.6814   -0.5723    0.5268 C.ar      1 MOL        -0.1324
      3 C3          2.8021   -1.7296    0.5446 C.ar      1 MOL        -0.1324
      4 C4          0.6777   -0.5577    1.9216 C.ar      1 MOL        -0.1005
      5 C5          2.7984   -1.7150    1.9393 C.ar      1 MOL        -0.1005
      6 C6          1.7363   -1.1291    2.6279 C.ar      1 MOL        -0.1263
      7 C7          1.7324   -1.1137    4.0821 C.2       1 MOL         0.6711
      8 C8          1.1117   -2.2514    6.2273 C.3       1 MOL         0.0838
      9 C9          0.5156   -3.3100    4.0772 C.3       1 MOL         0.0838
     10 N1          1.1407   -2.1872    4.7728 N.am      1 MOL        -0.4827
     11 O1          2.2712   -0.1457    4.6350 O.2       1 MOL        -0.5914
     12 H1          1.7464   -1.1696   -1.2477 H         1 MOL         0.1338
     13 H2         -0.1426   -0.1273   -0.0233 H         1 MOL         0.1365
     14 H3          3.6290   -2.1861    0.0085 H         1 MOL         0.1365
     15 H4         -0.1550   -0.0985    2.4481 H         1 MOL         0.1424
     16 H5          3.6286   -2.1631    2.4793 H         1 MOL         0.1424
     17 H6          0.2063   -1.7705    6.6066 H         1 MOL         0.0424
     18 H7          1.9832   -1.7405    6.6456 H         1 MOL         0.0424
     19 H8          1.1228   -3.2928    6.5600 H         1 MOL         0.0424
     20 H9          1.2528   -4.0961    3.8943 H         1 MOL         0.0424
     21 H10         0.1074   -2.9803    3.1179 H         1 MOL         0.0424
     22 H11        -0.2972   -3.7231    4.6805 H         1 MOL         0.0424
@<TRIPOS>BOND
     1    1    2 ar
     2    1    3 ar
     3    2    4 ar
     4    3    5 ar
     5    4    6 ar
     6    5    6 ar
     7    6    7 1
     8    7   10 am
     9    7   11 2
    10    8   10 1
    11    9   10 1
    12    1   12 1
    13    2   13 1
    14    3   14 1
    15    4   15 1
    16    5   16 1
    17    8   17 1
    18    8   18 1
    19    8   19 1
    20    9   20 1
    21    9   21 1
    22    9   22 1
