@<TRIPOS>MOLECULE
diethoxy-(4-nitrophenoxy)-thioxo-$l^{5}-phosphane
   32    32     0     0     0
SMALL
USER_CHARGES

@<TRIPOS>ATOM
      1 C1         -3.0302   -1.3710   -6.2057 C.ar      1 MOL        -0.0506
      2 C2         -3.7853    0.8542   -5.6442 C.ar      1 MOL        -0.0506
      3 C3         -2.0132   -1.2654   -5.2570 C.ar      1 MOL        -0.1448
      4 C4         -2.7683    0.9599   -4.6954 C.ar      1 MOL        -0.1448
      5 C5         -3.9163   -0.3112   -6.3994 C.ar      1 MOL        -0.1767
      6 C6         -1.8823   -0.0999   -4.5018 C.ar      1 MOL         0.1769
      7 C7          1.6528    1.1843   -0.2299 C.3       1 MOL        -0.0970
      8 C8          2.5358   -3.2660   -4.6304 C.3       1 MOL        -0.0970
      9 C9          0.4434    0.6057   -0.9331 C.3       1 MOL         0.1530
     10 C10         1.8052   -2.7460   -3.4108 C.3       1 MOL         0.1530
     11 N1         -4.9515   -0.4184   -7.3653 N.pl3     1 MOL         0.3153
     12 O1         -5.0520   -1.4753   -8.0342 O.3       1 MOL        -0.2028
     13 O2         -5.7378    0.5465   -7.5235 O.2       1 MOL        -0.2028
     14 O3         -0.8843    0.0037   -3.5707 O.3       1 MOL        -0.4643
     15 O4          0.8703   -0.4092   -1.8262 O.3       1 MOL        -0.5299
     16 O5          0.7376   -1.9141   -3.8319 O.3       1 MOL        -0.5299
     17 P1         -0.2256   -1.2121   -2.7243 P.3       1 MOL         1.2311
     18 S1         -1.4493   -2.3693   -1.7408 S.2       1 MOL        -0.5883
     19 H1         -3.1214   -2.2851   -6.7873 H         1 MOL         0.1782
     20 H2         -4.4686    1.6881   -5.7853 H         1 MOL         0.1782
     21 H3         -1.3263   -2.0944   -5.1103 H         1 MOL         0.1650
     22 H4         -2.6711    1.8705   -4.1105 H         1 MOL         0.1650
     23 H5          2.1771    0.4139    0.3423 H         1 MOL         0.0559
     24 H6          2.3480    1.6214   -0.9541 H         1 MOL         0.0559
     25 H7          1.3550    1.9887    0.4510 H         1 MOL         0.0559
     26 H8          1.8662   -3.8524   -5.2658 H         1 MOL         0.0559
     27 H9          2.9449   -2.4374   -5.2178 H         1 MOL         0.0559
     28 H10         3.3822   -3.8945   -4.3343 H         1 MOL         0.0559
     29 H11        -0.0763    1.3813   -1.5034 H         1 MOL         0.0571
     30 H12        -0.2497    0.1687   -0.2081 H         1 MOL         0.0571
     31 H13         2.4804   -2.1604   -2.7797 H         1 MOL         0.0571
     32 H14         1.3964   -3.5750   -2.8255 H         1 MOL         0.0571
@<TRIPOS>BOND
     1    1    3 ar
     2    1    5 ar
     3    2    4 ar
     4    2    5 ar
     5    3    6 ar
     6    4    6 ar
     7    5   11 1
     8    6   14 1
     9    7    9 1
    10    8   10 1
    11    9   15 1
    12   10   16 1
    13   11   12 1
    14   11   13 2
    15   14   17 1
    16   15   17 1
    17   16   17 1
    18   17   18 2
    19    1   19 1
    20    2   20 1
    21    3   21 1
    22    4   22 1
    23    7   23 1
    24    7   24 1
    25    7   25 1
    26    8   26 1
    27    8   27 1
    28    8   28 1
    29    9   29 1
    30    9   30 1
    31   10   31 1
    32   10   32 1
