@<TRIPOS>MOLECULE
cumene
   21    21     0     0     0
SMALL
USER_CHARGES

@<TRIPOS>ATOM
      1 C1          1.8851   -1.0363   -0.1124 C.ar      1 MOL        -0.1338
      2 C2          0.8066   -0.4630    0.5610 C.ar      1 MOL        -0.1290
      3 C3          2.9210   -1.6309    0.6081 C.ar      1 MOL        -0.1290
      4 C4          0.7638   -0.4841    1.9551 C.ar      1 MOL        -0.1276
      5 C5          2.8783   -1.6520    2.0022 C.ar      1 MOL        -0.1276
      6 C6          1.7997   -1.0786    2.6757 C.ar      1 MOL        -0.0715
      7 C7          2.4242    0.1356    4.7944 C.3       1 MOL        -0.0883
      8 C8          2.3717   -2.3844    4.7546 C.3       1 MOL        -0.0883
      9 C9          1.7548   -1.1014    4.1663 C.3       1 MOL        -0.0231
     10 H1          1.9176   -1.0210   -1.1980 H         1 MOL         0.1286
     11 H2         -0.0006   -0.0010    0.0001 H         1 MOL         0.1305
     12 H3          3.7604   -2.0783    0.0841 H         1 MOL         0.1305
     13 H4         -0.0804   -0.0348    2.4713 H         1 MOL         0.1303
     14 H5          3.6899   -2.1173    2.5553 H         1 MOL         0.1303
     15 H6          3.4797    0.2104    4.5112 H         1 MOL         0.0362
     16 H7          2.3751    0.1056    5.8884 H         1 MOL         0.0362
     17 H8          1.9236    1.0517    4.4614 H         1 MOL         0.0362
     18 H9          3.4224   -2.4748    4.4570 H         1 MOL         0.0362
     19 H10         1.8459   -3.2790    4.4036 H         1 MOL         0.0362
     20 H11         2.3334   -2.3849    5.8494 H         1 MOL         0.0362
     21 H12         0.7030   -1.0851    4.5102 H         1 MOL         0.0508
@<TRIPOS>BOND
     1    1    2 ar
     2    1    3 ar
     3    2    4 ar
     4    3    5 ar
     5    4    6 ar
     6    5    6 ar
     7    6    9 1
     8    7    9 1
     9    8    9 1
    10    1   10 1
    11    2   11 1
    12    3   12 1
    13    4   13 1
    14    5   14 1
    15    7   15 1
    16    7   16 1
    17    7   17 1
    18    8   18 1
    19    8   19 1
    20    8   20 1
    21    9   21 1
