@<TRIPOS>MOLECULE
4-chloro-3-methyl-phenol
   16    16     0     0     0
SMALL
USER_CHARGES

@<TRIPOS>ATOM
      1 C1          1.8851   -1.0363   -0.1124 C.ar      1 MOL        -0.1551
      2 C2          0.8066   -0.4630    0.5610 C.ar      1 MOL        -0.0874
      3 C3          2.8783   -1.6520    2.0022 C.ar      1 MOL        -0.2125
      4 C4          1.7997   -1.0786    2.6757 C.ar      1 MOL        -0.0259
      5 C5          2.9210   -1.6309    0.6081 C.ar      1 MOL         0.1307
      6 C6          0.7638   -0.4841    1.9551 C.ar      1 MOL        -0.0200
      7 C7          1.7910   -1.1223    4.1696 C.3       1 MOL        -0.0609
      8 O1          3.9730   -2.1906   -0.0496 O.3       1 MOL        -0.4942
      9 Cl1        -0.5891    0.2307    2.7535 Cl        1 MOL        -0.0968
     10 H1          1.9124   -1.0175   -1.1985 H         1 MOL         0.1543
     11 H2          0.0073   -0.0044   -0.0158 H         1 MOL         0.1498
     12 H3          3.6888   -2.1147    2.5602 H         1 MOL         0.1377
     13 H4          2.2853   -0.2335    4.5774 H         1 MOL         0.0531
     14 H5          0.7662   -1.1626    4.5579 H         1 MOL         0.0531
     15 H6          2.3097   -2.0139    4.5420 H         1 MOL         0.0531
     16 H7          4.6076   -2.5609    0.5845 H         1 MOL         0.4209
@<TRIPOS>BOND
     1    1    2 ar
     2    1    5 ar
     3    2    6 ar
     4    3    4 ar
     5    3    5 ar
     6    4    6 ar
     7    4    7 1
     8    5    8 1
     9    6    9 1
    10    1   10 1
    11    2   11 1
    12    3   12 1
    13    7   13 1
    14    7   14 1
    15    7   15 1
    16    8   16 1
