@<TRIPOS>MOLECULE
N3,N3-diethyl-2,4-dinitro-6-(trifluoromethyl)benzene-1,3-diamine
   35    35     0     0     0
SMALL
USER_CHARGES

@<TRIPOS>ATOM
      1 C1          1.8851   -1.0363   -0.1124 C.ar      1 MOL         0.0376
      2 C2          0.8066   -0.4630    0.5610 C.ar      1 MOL        -0.2785
      3 C3          0.7638   -0.4841    1.9551 C.ar      1 MOL         0.3267
      4 C4          2.8783   -1.6520    2.0022 C.ar      1 MOL         0.3515
      5 C5          2.9210   -1.6309    0.6081 C.ar      1 MOL        -0.2435
      6 C6          1.7997   -1.0786    2.6757 C.ar      1 MOL        -0.2783
      7 C7          5.2059   -1.4456    4.6259 C.3       1 MOL        -0.1235
      8 C8          4.9885   -4.4215    2.4726 C.3       1 MOL        -0.1235
      9 C9          5.0763   -1.4731    3.1409 C.3       1 MOL         0.2383
     10 C10         3.8629   -3.6577    3.0828 C.3       1 MOL         0.2383
     11 C11        -0.2882    0.1660   -0.2386 C.3       1 MOL         0.6958
     12 N1         -0.3354    0.1006    2.6289 N.pl3     1 MOL        -0.8486
     13 N2          3.9320   -2.2566    2.7315 N.pl3     1 MOL        -0.7939
     14 N3          4.0084   -2.2076   -0.1069 N.pl3     1 MOL         0.3282
     15 N4          1.7551   -1.0999    4.1020 N.pl3     1 MOL         0.3203
     16 O1          5.0001   -1.4918   -0.3795 O.3       1 MOL        -0.1868
     17 O2          2.2662   -0.1480    4.7333 O.3       1 MOL        -0.1878
     18 O3          3.9403   -3.4133   -0.4413 O.2       1 MOL        -0.1868
     19 O4          1.2065   -2.0696    4.6716 O.2       1 MOL        -0.1878
     20 F1         -0.0862    0.0974   -1.5866 F         1 MOL        -0.2317
     21 F2         -1.5105   -0.4039   -0.0296 F         1 MOL        -0.2317
     22 F3         -0.4458    1.4908    0.0436 F         1 MOL        -0.2317
     23 H1          1.9141   -1.0176   -1.2000 H         1 MOL         0.1817
     24 H2          4.3180   -1.0000    5.0874 H         1 MOL         0.0490
     25 H3          5.3512   -2.4559    5.0237 H         1 MOL         0.0490
     26 H4          6.0749   -0.8408    4.9117 H         1 MOL         0.0490
     27 H5          4.9601   -4.3530    1.3797 H         1 MOL         0.0490
     28 H6          5.9536   -4.0487    2.8328 H         1 MOL         0.0490
     29 H7          4.9107   -5.4803    2.7469 H         1 MOL         0.0490
     30 H8          5.9662   -1.9192    2.6866 H         1 MOL         0.0513
     31 H9          4.9472   -0.4619    2.7439 H         1 MOL         0.0513
     32 H10         3.8973   -3.7304    4.1740 H         1 MOL         0.0513
     33 H11         2.8996   -4.0416    2.7343 H         1 MOL         0.0513
     34 H12        -1.0401    0.5609    2.0938 H         1 MOL         0.4584
     35 H13        -0.3338    0.1222    3.6261 H         1 MOL         0.4584
@<TRIPOS>BOND
     1    1    2 ar
     2    1    5 ar
     3    2    3 ar
     4    2   11 1
     5    3    6 ar
     6    3   12 1
     7    4    5 ar
     8    4    6 ar
     9    4   13 1
    10    5   14 1
    11    6   15 1
    12    7    9 1
    13    8   10 1
    14    9   13 1
    15   10   13 1
    16   11   20 1
    17   11   21 1
    18   11   22 1
    19   14   16 1
    20   14   18 2
    21   15   17 1
    22   15   19 2
    23    1   23 1
    24    7   24 1
    25    7   25 1
    26    7   26 1
    27    8   27 1
    28    8   28 1
    29    8   29 1
    30    9   30 1
    31    9   31 1
    32   10   32 1
    33   10   33 1
    34   12   34 1
    35   12   35 1
