@<TRIPOS>MOLECULE
acetamide
    9     8     0     0     0
SMALL
USER_CHARGES

@<TRIPOS>ATOM
      1 C1         -1.1143   -1.7345    0.5269 C.2       1 MOL         0.6564
      2 C2          0.0085   -1.0706   -0.2216 C.3       1 MOL        -0.1720
      3 N1         -0.6961   -2.4994    1.5900 N.am      1 MOL        -0.6819
      4 O1         -2.2913   -1.5797    0.2102 O.2       1 MOL        -0.6154
      5 H1          0.3485   -1.7355   -1.0204 H         1 MOL         0.0646
      6 H2         -0.3565   -0.1357   -0.6552 H         1 MOL         0.0646
      7 H3          0.8581   -0.8507    0.4305 H         1 MOL         0.0646
      8 H4          0.2977   -2.5591    1.7858 H         1 MOL         0.3095
      9 H5         -1.3415   -3.0066    2.1868 H         1 MOL         0.3095
@<TRIPOS>BOND
     1    1    2 1
     2    1    3 am
     3    1    4 2
     4    2    5 1
     5    2    6 1
     6    2    7 1
     7    3    8 1
     8    3    9 1
