@<TRIPOS>MOLECULE
diethyl propanedioate
   23    22     0     0     0
SMALL
USER_CHARGES

@<TRIPOS>ATOM
      1 C1         -1.7484   -1.9701   -0.4566 C.2       1 MOL         0.6484
      2 C2         -3.8574   -3.1506   -1.3112 C.2       1 MOL         0.6484
      3 C3          0.5833   -0.4812    1.9453 C.3       1 MOL        -0.1012
      4 C4         -7.1208   -4.8101   -1.1779 C.3       1 MOL        -0.1012
      5 C5         -3.0694   -2.6259   -0.1356 C.3       1 MOL        -0.1866
      6 C6          0.0899   -0.8910    0.5740 C.3       1 MOL         0.1408
      7 C7         -5.8856   -4.2475   -1.8484 C.3       1 MOL         0.1408
      8 O1         -1.2692   -1.8410   -1.5742 O.2       1 MOL        -0.5193
      9 O2         -3.5114   -3.0968   -2.4827 O.2       1 MOL        -0.5193
     10 O3         -1.1775   -1.5421    0.7100 O.3       1 MOL        -0.4439
     11 O4         -5.0213   -3.6986   -0.8482 O.3       1 MOL        -0.4439
     12 H1         -0.1161    0.2122    2.4205 H         1 MOL         0.0496
     13 H2          0.7046   -1.3581    2.5898 H         1 MOL         0.0496
     14 H3          1.5645   -0.0002    1.8744 H         1 MOL         0.0496
     15 H4         -6.8553   -5.6029   -0.4730 H         1 MOL         0.0496
     16 H5         -7.6596   -4.0238   -0.6391 H         1 MOL         0.0496
     17 H6         -7.8127   -5.2170   -1.9229 H         1 MOL         0.0496
     18 H7         -2.8659   -3.4727    0.5293 H         1 MOL         0.1128
     19 H8         -3.6913   -1.8821    0.3751 H         1 MOL         0.1128
     20 H9          0.7938   -1.5845    0.1043 H         1 MOL         0.0534
     21 H10        -0.0316   -0.0137   -0.0683 H         1 MOL         0.0534
     22 H11        -6.1581   -3.4552   -2.5520 H         1 MOL         0.0534
     23 H12        -5.3480   -5.0345   -2.3855 H         1 MOL         0.0534
@<TRIPOS>BOND
     1    1    5 1
     2    1    8 2
     3    1   10 1
     4    2    5 1
     5    2    9 2
     6    2   11 1
     7    3    6 1
     8    4    7 1
     9    6   10 1
    10    7   11 1
    11    3   12 1
    12    3   13 1
    13    3   14 1
    14    4   15 1
    15    4   16 1
    16    4   17 1
    17    5   18 1
    18    5   19 1
    19    6   20 1
    20    6   21 1
    21    7   22 1
    22    7   23 1
