@<TRIPOS>MOLECULE
acetaldehyde
    7     6     0     0     0
SMALL
USER_CHARGES

@<TRIPOS>ATOM
      1 C1         -1.5033   -0.9603    1.1512 C.2       1 MOL         0.5634
      2 C2         -0.5886   -0.9197   -0.0340 C.3       1 MOL        -0.2215
      3 O1         -1.4762   -1.8492    1.9958 O.2       1 MOL        -0.5270
      4 H1         -2.2225   -0.1273    1.2270 H         1 MOL        -0.0095
      5 H2          0.3159   -0.3674    0.2312 H         1 MOL         0.0648
      6 H3         -0.3196   -1.9351   -0.3350 H         1 MOL         0.0648
      7 H4         -1.0967   -0.4179   -0.8607 H         1 MOL         0.0648
@<TRIPOS>BOND
     1    1    2 1
     2    1    3 2
     3    1    4 1
     4    2    5 1
     5    2    6 1
     6    2    7 1
