@<TRIPOS>MOLECULE
(1R)-2,2,2-trichloro-1-dimethoxyphosphoryl-ethanol
   20    19     0     0     0
SMALL
USER_CHARGES

@<TRIPOS>ATOM
      1 C1          1.0254   -0.7183    1.9055 C.3       1 MOL         0.1530
      2 C2          0.9830    2.6113    0.5894 C.3       1 MOL         0.1530
      3 C3         -1.1258   -0.6526   -0.5268 C.3       1 MOL        -0.0763
      4 C4         -1.0978   -2.0561   -1.1497 C.3       1 MOL         0.2438
      5 O1          1.0184    0.5667   -1.8054 O.2       1 MOL        -0.8108
      6 O2         -2.0098    0.1890   -1.2716 O.3       1 MOL        -0.5694
      7 O3          1.3842   -0.5003    0.5522 O.3       1 MOL        -0.5726
      8 O4         -0.0108    1.6283    0.3545 O.3       1 MOL        -0.5726
      9 P1          0.4016    0.2898   -0.4640 P.3       1 MOL         1.5143
     10 Cl1        -2.7420   -2.7530   -1.2427 Cl        1 MOL        -0.0989
     11 Cl2        -0.4468   -1.9603   -2.8235 Cl        1 MOL        -0.0989
     12 Cl3        -0.0584   -3.1790   -0.2189 Cl        1 MOL        -0.0989
     13 H1          1.8240   -1.2665    2.4112 H         1 MOL         0.0476
     14 H2          0.0937   -1.2880    1.9491 H         1 MOL         0.0476
     15 H3          0.8828    0.2477    2.3955 H         1 MOL         0.0476
     16 H4          0.5484    3.4435    1.1486 H         1 MOL         0.0476
     17 H5          1.3780    2.9668   -0.3657 H         1 MOL         0.0476
     18 H6          1.7923    2.1662    1.1731 H         1 MOL         0.0476
     19 H7         -1.5380   -0.7025    0.4865 H         1 MOL         0.1134
     20 H8         -2.8937   -0.2150   -1.2363 H         1 MOL         0.4355
@<TRIPOS>BOND
     1    1    7 1
     2    2    8 1
     3    3    4 1
     4    3    6 1
     5    3    9 1
     6    4   10 1
     7    4   11 1
     8    4   12 1
     9    5    9 2
    10    7    9 1
    11    8    9 1
    12    1   13 1
    13    1   14 1
    14    1   15 1
    15    2   16 1
    16    2   17 1
    17    2   18 1
    18    3   19 1
    19    6   20 1
