@<TRIPOS>MOLECULE
2-nitrophenol
   15    15     0     0     0
SMALL
USER_CHARGES

@<TRIPOS>ATOM
      1 C1          1.8851   -1.0363   -0.1124 C.ar      1 MOL        -0.1617
      2 C2          0.8066   -0.4630    0.5610 C.ar      1 MOL        -0.0637
      3 C3          2.9210   -1.6309    0.6081 C.ar      1 MOL        -0.0537
      4 C4          0.7638   -0.4841    1.9551 C.ar      1 MOL        -0.2106
      5 C5          2.8783   -1.6520    2.0022 C.ar      1 MOL        -0.1850
      6 C6          1.7997   -1.0786    2.6757 C.ar      1 MOL         0.1758
      7 N1          3.9428   -2.2624    2.7208 N.pl3     1 MOL         0.3237
      8 O1          4.9263   -1.5618    3.0580 O.3       1 MOL        -0.1912
      9 O2          3.8664   -3.4832    2.9960 O.2       1 MOL        -0.1912
     10 O3          1.7362   -1.0851    4.0376 O.3       1 MOL        -0.4797
     11 H1          1.9186   -1.0197   -1.1980 H         1 MOL         0.1504
     12 H2         -0.0001   -0.0002   -0.0000 H         1 MOL         0.1443
     13 H3          3.7554   -2.0740    0.0698 H         1 MOL         0.1596
     14 H4         -0.0798   -0.0357    2.4735 H         1 MOL         0.1478
     15 H5          0.9249   -0.6459    4.3362 H         1 MOL         0.4352
@<TRIPOS>BOND
     1    1    2 ar
     2    1    3 ar
     3    2    4 ar
     4    3    5 ar
     5    4    6 ar
     6    5    6 ar
     7    5    7 1
     8    6   10 1
     9    7    8 1
    10    7    9 2
    11    1   11 1
    12    2   12 1
    13    3   13 1
    14    4   14 1
    15   10   15 1
