@<TRIPOS>MOLECULE
methyl cyclopropanecarboxylate
   15    15     0     0     0
SMALL
USER_CHARGES

@<TRIPOS>ATOM
      1 C1         -1.8735   -0.5525    1.2582 C.2       1 MOL         0.6592
      2 C2          0.3559   -1.2827    0.2194 C.3       1 MOL        -0.1071
      3 C3          0.3322    0.2163    0.1982 C.3       1 MOL        -0.1071
      4 C4         -0.9373   -0.5552    0.0879 C.3       1 MOL        -0.1919
      5 C5         -3.6262    0.6755    2.2600 C.3       1 MOL         0.1254
      6 O1         -1.8924   -1.4185    2.1225 O.2       1 MOL        -0.5358
      7 O2         -2.6771    0.5472    1.1966 O.3       1 MOL        -0.4369
      8 H1          0.7757   -1.7915   -0.6399 H         1 MOL         0.0829
      9 H2          0.5486   -1.7711    1.1669 H         1 MOL         0.0829
     10 H3          0.5089    0.7370    1.1315 H         1 MOL         0.0829
     11 H4          0.7363    0.7136   -0.6752 H         1 MOL         0.0829
     12 H5         -1.4460   -0.5766   -0.8555 H         1 MOL         0.1122
     13 H6         -4.2156    1.5843    2.1157 H         1 MOL         0.0501
     14 H7         -3.0994    0.7183    3.2166 H         1 MOL         0.0501
     15 H8         -4.2902   -0.1921    2.2505 H         1 MOL         0.0501
@<TRIPOS>BOND
     1    1    4 1
     2    1    6 2
     3    1    7 1
     4    2    3 1
     5    2    4 1
     6    3    4 1
     7    5    7 1
     8    2    8 1
     9    2    9 1
    10    3   10 1
    11    3   11 1
    12    4   12 1
    13    5   13 1
    14    5   14 1
    15    5   15 1
