@<TRIPOS>MOLECULE
4-methylbenzaldehyde
   17    17     0     0     0
SMALL
USER_CHARGES

@<TRIPOS>ATOM
      1 C1          1.8851   -1.0363   -0.1124 C.ar      1 MOL        -0.0733
      2 C2          2.8783   -1.6520    2.0022 C.ar      1 MOL        -0.0733
      3 C3          0.8066   -0.4630    0.5610 C.ar      1 MOL        -0.1480
      4 C4          1.7997   -1.0786    2.6757 C.ar      1 MOL        -0.1480
      5 C5          2.9210   -1.6309    0.6081 C.ar      1 MOL        -0.2050
      6 C6          0.7638   -0.4841    1.9551 C.ar      1 MOL        -0.0426
      7 C7          4.0464   -2.2285   -0.0930 C.2       1 MOL         0.5773
      8 C8         -0.3892    0.1300    2.6748 C.3       1 MOL        -0.0621
      9 O1          4.9922   -2.7684    0.4875 O.2       1 MOL        -0.5303
     10 H1          1.9089   -1.0145   -1.1989 H         1 MOL         0.1440
     11 H2          3.6797   -2.1125    2.5740 H         1 MOL         0.1440
     12 H3          0.0041   -0.0017   -0.0084 H         1 MOL         0.1372
     13 H4          1.7748   -1.0992    3.7621 H         1 MOL         0.1372
     14 H5          4.0370   -2.1872   -1.2040 H         1 MOL        -0.0051
     15 H6         -1.1815   -0.6123    2.8301 H         1 MOL         0.0494
     16 H7         -0.0843    0.5235    3.6531 H         1 MOL         0.0494
     17 H8         -0.8079    0.9731    2.1098 H         1 MOL         0.0494
@<TRIPOS>BOND
     1    1    3 ar
     2    1    5 ar
     3    2    4 ar
     4    2    5 ar
     5    3    6 ar
     6    4    6 ar
     7    5    7 1
     8    6    8 1
     9    7    9 2
    10    1   10 1
    11    2   11 1
    12    3   12 1
    13    4   13 1
    14    7   14 1
    15    8   15 1
    16    8   16 1
    17    8   17 1
