@<TRIPOS>MOLECULE
2-ethylpyrazine
   16    16     0     0     0
SMALL
USER_CHARGES

@<TRIPOS>ATOM
      1 C1         -1.5571   -1.3073    0.7174 C.ar      1 MOL         0.2720
      2 C2         -0.3211   -1.0181    0.1824 C.ar      1 MOL         0.2858
      3 C3         -1.0772   -3.5410    0.6188 C.ar      1 MOL         0.2788
      4 C4          0.1585   -3.2519    0.0831 C.ar      1 MOL         0.3008
      5 C5          2.0249   -4.7153    0.8964 C.3       1 MOL        -0.0918
      6 C6          1.1054   -4.3465   -0.2662 C.3       1 MOL        -0.1286
      7 N1         -1.9573   -2.5739    0.9453 N.ar      1 MOL        -0.6251
      8 N2          0.5588   -1.9852   -0.1444 N.ar      1 MOL        -0.6332
      9 H1         -2.2637   -0.5296    0.9796 H         1 MOL         0.0327
     10 H2         -0.0002    0.0000   -0.0002 H         1 MOL         0.0337
     11 H3         -1.4057   -4.5568    0.8048 H         1 MOL         0.0329
     12 H4          2.5896   -3.8427    1.2417 H         1 MOL         0.0410
     13 H5          2.7417   -5.4860    0.5962 H         1 MOL         0.0410
     14 H6          1.4489   -5.0999    1.7450 H         1 MOL         0.0410
     15 H7          0.5546   -5.2466   -0.5864 H         1 MOL         0.0595
     16 H8          1.7227   -4.0613   -1.1344 H         1 MOL         0.0595
@<TRIPOS>BOND
     1    1    2 ar
     2    1    7 ar
     3    2    8 ar
     4    3    4 ar
     5    3    7 ar
     6    4    6 1
     7    4    8 ar
     8    5    6 1
     9    1    9 1
    10    2   10 1
    11    3   11 1
    12    5   12 1
    13    5   13 1
    14    5   14 1
    15    6   15 1
    16    6   16 1
