@<TRIPOS>MOLECULE
(methyldisulfanyl)methane
   10     9     0     0     0
SMALL
USER_CHARGES

@<TRIPOS>ATOM
      1 C1          0.8115   -0.6598    0.3193 C.3       1 MOL        -0.0136
      2 C2          1.5891   -4.2574    1.0432 C.3       1 MOL        -0.0136
      3 S1          0.2411   -1.6598    1.7146 S.3       1 MOL        -0.2095
      4 S2          1.8940   -2.8212    2.1001 S.3       1 MOL        -0.2095
      5 H1          0.0179    0.0205    0.0005 H         1 MOL         0.0744
      6 H2          1.0814   -1.3094   -0.5170 H         1 MOL         0.0744
      7 H3          1.6861   -0.0752    0.6146 H         1 MOL         0.0744
      8 H4          2.4059   -4.9758    1.1474 H         1 MOL         0.0744
      9 H5          1.5228   -3.9422   -0.0011 H         1 MOL         0.0744
     10 H6          0.6512   -4.7381    1.3318 H         1 MOL         0.0744
@<TRIPOS>BOND
     1    1    3 1
     2    2    4 1
     3    3    4 1
     4    1    5 1
     5    1    6 1
     6    1    7 1
     7    2    8 1
     8    2    9 1
     9    2   10 1
