@<TRIPOS>MOLECULE
propyl formate
   14    13     0     0     0
SMALL
USER_CHARGES

@<TRIPOS>ATOM
      1 C1          2.6256   -1.8218    4.7997 C.2       1 MOL         0.6290
      2 C2         -0.0035   -0.6640    0.8700 C.3       1 MOL        -0.0919
      3 C3          1.2444   -0.4434    1.7060 C.3       1 MOL        -0.1076
      4 C4          1.2749   -1.3494    2.9273 C.3       1 MOL         0.1314
      5 O1          1.8774   -2.6811    5.2388 O.2       1 MOL        -0.5397
      6 O2          2.4570   -1.0814    3.6686 O.3       1 MOL        -0.4474
      7 H1          3.5699   -1.5249    5.2816 H         1 MOL         0.0782
      8 H2         -0.0766   -1.7059    0.5423 H         1 MOL         0.0372
      9 H3         -0.8985   -0.4284    1.4543 H         1 MOL         0.0372
     10 H4          0.0009   -0.0237   -0.0177 H         1 MOL         0.0372
     11 H5          1.2990    0.6047    2.0239 H         1 MOL         0.0533
     12 H6          2.1379   -0.6194    1.0950 H         1 MOL         0.0533
     13 H7          0.4098   -1.1652    3.5724 H         1 MOL         0.0649
     14 H8          1.2804   -2.4035    2.6318 H         1 MOL         0.0649
@<TRIPOS>BOND
     1    1    5 2
     2    1    6 1
     3    2    3 1
     4    3    4 1
     5    4    6 1
     6    1    7 1
     7    2    8 1
     8    2    9 1
     9    2   10 1
    10    3   11 1
    11    3   12 1
    12    4   13 1
    13    4   14 1
