@<TRIPOS>MOLECULE
1-chlorohexane
   20    19     0     0     0
SMALL
USER_CHARGES

@<TRIPOS>ATOM
      1 C1          0.6567   -0.6720    0.5625 C.3       1 MOL        -0.0920
      2 C2          0.0265   -1.0251    1.9002 C.3       1 MOL        -0.0801
      3 C3          0.9415   -1.9260    2.7295 C.3       1 MOL        -0.0777
      4 C4          0.2900   -2.3065    4.0612 C.3       1 MOL        -0.0825
      5 C5          1.2206   -3.1861    4.9017 C.3       1 MOL        -0.0869
      6 C6          0.5873   -3.6597    6.2060 C.3       1 MOL         0.0383
      7 Cl1         0.1397   -2.3014    7.2633 Cl        1 MOL        -0.1999
      8 H1          0.8833   -1.5742   -0.0147 H         1 MOL         0.0332
      9 H2          1.5915   -0.1238    0.7166 H         1 MOL         0.0332
     10 H3         -0.0124   -0.0419   -0.0324 H         1 MOL         0.0332
     11 H4         -0.1873   -0.1021    2.4517 H         1 MOL         0.0396
     12 H5         -0.9317   -1.5278    1.7248 H         1 MOL         0.0396
     13 H6          1.8911   -1.4106    2.9194 H         1 MOL         0.0386
     14 H7          1.1747   -2.8346    2.1610 H         1 MOL         0.0386
     15 H8         -0.6472   -2.8433    3.8702 H         1 MOL         0.0475
     16 H9          0.0341   -1.3930    4.6097 H         1 MOL         0.0475
     17 H10         2.1522   -2.6468    5.1136 H         1 MOL         0.0522
     18 H11         1.4963   -4.0716    4.3156 H         1 MOL         0.0522
     19 H12        -0.3138   -4.2505    6.0162 H         1 MOL         0.0626
     20 H13         1.2941   -4.2829    6.7620 H         1 MOL         0.0626
@<TRIPOS>BOND
     1    1    2 1
     2    2    3 1
     3    3    4 1
     4    4    5 1
     5    5    6 1
     6    6    7 1
     7    1    8 1
     8    1    9 1
     9    1   10 1
    10    2   11 1
    11    2   12 1
    12    3   13 1
    13    3   14 1
    14    4   15 1
    15    4   16 1
    16    5   17 1
    17    5   18 1
    18    6   19 1
    19    6   20 1
