@<TRIPOS>MOLECULE
2,2,2-trifluoroethanol
    9     8     0     0     0
SMALL
USER_CHARGES

@<TRIPOS>ATOM
      1 C1          0.7722   -0.3315    0.7004 C.3       1 MOL         0.0952
      2 C2          1.3425    0.8421    1.4537 C.3       1 MOL         0.6318
      3 O1          1.8121   -0.9630   -0.0310 O.3       1 MOL        -0.5773
      4 F1          2.3095    0.4360    2.3055 F         1 MOL        -0.2323
      5 F2          0.3914    1.4672    2.1793 F         1 MOL        -0.2323
      6 F3          1.8891    1.7450    0.6124 F         1 MOL        -0.2323
      7 H1          0.3377   -1.0582    1.3932 H         1 MOL         0.0629
      8 H2          0.0000    0.0000    0.0000 H         1 MOL         0.0629
      9 H3          1.4108   -1.7115   -0.5024 H         1 MOL         0.4212
@<TRIPOS>BOND
     1    1    2 1
     2    1    3 1
     3    2    4 1
     4    2    5 1
     5    2    6 1
     6    1    7 1
     7    1    8 1
     8    3    9 1
