@<TRIPOS>MOLECULE
1-bromohexane
   20    19     0     0     0
SMALL
USER_CHARGES

@<TRIPOS>ATOM
      1 C1          0.1426    1.4598   -2.8389 C.3       1 MOL        -0.0925
      2 C2         -0.5361    1.0930   -1.5289 C.3       1 MOL        -0.0799
      3 C3          0.3489    0.1853   -0.6748 C.3       1 MOL        -0.0785
      4 C4         -0.3512   -0.2087    0.6279 C.3       1 MOL        -0.0786
      5 C5          0.5489   -1.0957    1.4947 C.3       1 MOL        -0.0818
      6 C6         -0.1404   -1.5916    2.7564 C.3       1 MOL        -0.0069
      7 Br1         1.0420   -2.7223    3.8106 Br        1 MOL        -0.1808
      8 H1          0.3918    0.5637   -3.4161 H         1 MOL         0.0340
      9 H2          1.0700    2.0077   -2.6448 H         1 MOL         0.0340
     10 H3         -0.5051    2.0947   -3.4518 H         1 MOL         0.0340
     11 H4         -0.7716    2.0104   -0.9767 H         1 MOL         0.0385
     12 H5         -1.4867    0.5909   -1.7444 H         1 MOL         0.0385
     13 H6          1.2898    0.7002   -0.4450 H         1 MOL         0.0412
     14 H7          0.6048   -0.7176   -1.2424 H         1 MOL         0.0412
     15 H8         -1.2795   -0.7446    0.3958 H         1 MOL         0.0415
     16 H9         -0.6300    0.6989    1.1748 H         1 MOL         0.0415
     17 H10         1.4709   -0.5575    1.7463 H         1 MOL         0.0554
     18 H11         0.8453   -1.9711    0.9036 H         1 MOL         0.0554
     19 H12        -0.4689   -0.7737    3.4030 H         1 MOL         0.0720
     20 H13        -1.0009   -2.2188    2.5070 H         1 MOL         0.0720
@<TRIPOS>BOND
     1    1    2 1
     2    2    3 1
     3    3    4 1
     4    4    5 1
     5    5    6 1
     6    6    7 1
     7    1    8 1
     8    1    9 1
     9    1   10 1
    10    2   11 1
    11    2   12 1
    12    3   13 1
    13    3   14 1
    14    4   15 1
    15    4   16 1
    16    5   17 1
    17    5   18 1
    18    6   19 1
    19    6   20 1
