@<TRIPOS>MOLECULE
methyl methanesulfonate
   12    11     0     0     0
SMALL
USER_CHARGES

@<TRIPOS>ATOM
      1 C1          0.8892   -0.5207    0.3643 C.3       1 MOL         0.1570
      2 C2          4.3140    1.3852    0.5949 C.3       1 MOL        -0.4091
      3 O1          3.9557   -1.1138   -0.0960 O.2       1 MOL        -0.6513
      4 O2          3.4013   -0.4040    2.2732 O.2       1 MOL        -0.6513
      5 O3          1.9819    0.3849    0.3487 O.3       1 MOL        -0.5530
      6 S1          3.4454   -0.1414    0.8490 S.o2      1 MOL         1.5964
      7 H1         -0.0094   -0.0150    0.0024 H         1 MOL         0.0449
      8 H2          0.7305   -0.8841    1.3828 H         1 MOL         0.0449
      9 H3          1.1179   -1.3651   -0.2902 H         1 MOL         0.0449
     10 H4          3.9327    2.1207    1.3049 H         1 MOL         0.1256
     11 H5          5.3776    1.2081    0.7618 H         1 MOL         0.1256
     12 H6          4.1373    1.7154   -0.4299 H         1 MOL         0.1256
@<TRIPOS>BOND
     1    1    5 1
     2    2    6 1
     3    3    6 2
     4    4    6 2
     5    5    6 1
     6    1    7 1
     7    1    8 1
     8    1    9 1
     9    2   10 1
    10    2   11 1
    11    2   12 1
