@<TRIPOS>MOLECULE
trifluoromethylbenzene
   15    15     0     0     0
SMALL
USER_CHARGES

@<TRIPOS>ATOM
      1 C1          1.8851   -1.0363   -0.1124 C.ar      1 MOL        -0.1006
      2 C2          0.8066   -0.4630    0.5610 C.ar      1 MOL        -0.1342
      3 C3          2.9210   -1.6309    0.6081 C.ar      1 MOL        -0.1342
      4 C4          0.7638   -0.4841    1.9551 C.ar      1 MOL        -0.0815
      5 C5          2.8783   -1.6520    2.0022 C.ar      1 MOL        -0.0815
      6 C6          1.7997   -1.0786    2.6757 C.ar      1 MOL        -0.1684
      7 C7          1.7548   -1.1014    4.1663 C.3       1 MOL         0.6869
      8 F1          0.6430   -0.5047    4.6896 F         1 MOL        -0.2375
      9 F2          1.7647   -2.3610    4.6944 F         1 MOL        -0.2375
     10 F3          2.8166   -0.4582    4.7335 F         1 MOL        -0.2375
     11 H1          1.9176   -1.0210   -1.1980 H         1 MOL         0.1391
     12 H2         -0.0006   -0.0010    0.0001 H         1 MOL         0.1422
     13 H3          3.7604   -2.0783    0.0841 H         1 MOL         0.1422
     14 H4         -0.0804   -0.0348    2.4713 H         1 MOL         0.1512
     15 H5          3.6899   -2.1173    2.5553 H         1 MOL         0.1512
@<TRIPOS>BOND
     1    1    2 ar
     2    1    3 ar
     3    2    4 ar
     4    3    5 ar
     5    4    6 ar
     6    5    6 ar
     7    6    7 1
     8    7    8 1
     9    7    9 1
    10    7   10 1
    11    1   11 1
    12    2   12 1
    13    3   13 1
    14    4   14 1
    15    5   15 1
