@<TRIPOS>MOLECULE
pyrene
   26    29     0     0     0
SMALL
USER_CHARGES

@<TRIPOS>ATOM
      1 C1          5.0009    4.9505    4.0349 C.ar      1 MOL        -0.1272
      2 C2          0.6697    0.6630    0.5403 C.ar      1 MOL        -0.1270
      3 C3          3.8351    4.4917    4.6458 C.ar      1 MOL        -0.1136
      4 C4          5.3099    4.5612    2.7327 C.ar      1 MOL        -0.1136
      5 C5          0.3606    1.0524    1.8425 C.ar      1 MOL        -0.1136
      6 C6          1.8355    1.1218   -0.0706 C.ar      1 MOL        -0.1136
      7 C7          1.7833    3.1630    4.5578 C.ar      1 MOL        -0.1139
      8 C8          4.7481    3.3027    0.7120 C.ar      1 MOL        -0.1139
      9 C9          0.9225    2.3109    3.8632 C.ar      1 MOL        -0.1139
     10 C10         3.8872    2.4505    0.0174 C.ar      1 MOL        -0.1139
     11 C11         2.9602    3.6354    3.9615 C.ar      1 MOL        -0.0341
     12 C12         4.4555    3.7058    2.0218 C.ar      1 MOL        -0.0341
     13 C13         1.2150    1.9078    2.5533 C.ar      1 MOL        -0.0341
     14 C14         2.7103    1.9783    0.6137 C.ar      1 MOL        -0.0341
     15 C15         3.2721    3.2392    2.6400 C.ar      1 MOL        -0.0155
     16 C16         2.3984    2.3744    1.9351 C.ar      1 MOL        -0.0155
     17 H1          5.6703    5.6134    4.5754 H         1 MOL         0.1325
     18 H2          0.0003    0.0001   -0.0005 H         1 MOL         0.1325
     19 H3          3.6160    4.8096    5.6629 H         1 MOL         0.1338
     20 H4          6.2255    4.9328    2.2776 H         1 MOL         0.1338
     21 H5         -0.5553    0.6810    2.2973 H         1 MOL         0.1338
     22 H6          2.0548    0.8037   -1.0877 H         1 MOL         0.1338
     23 H7          1.5226    3.4542    5.5735 H         1 MOL         0.1328
     24 H8          5.6526    3.6487    0.2159 H         1 MOL         0.1328
     25 H9          0.0181    1.9649    4.3591 H         1 MOL         0.1328
     26 H10         4.1479    2.1593   -0.9982 H         1 MOL         0.1328
@<TRIPOS>BOND
     1    1    3 ar
     2    1    4 ar
     3    2    5 ar
     4    2    6 ar
     5    3   11 ar
     6    4   12 ar
     7    5   13 ar
     8    6   14 ar
     9    7    9 ar
    10    7   11 ar
    11    8   10 ar
    12    8   12 ar
    13    9   13 ar
    14   10   14 ar
    15   11   15 ar
    16   12   15 ar
    17   13   16 ar
    18   14   16 ar
    19   15   16 ar
    20    1   17 1
    21    2   18 1
    22    3   19 1
    23    4   20 1
    24    5   21 1
    25    6   22 1
    26    7   23 1
    27    8   24 1
    28    9   25 1
    29   10   26 1
