@<TRIPOS>MOLECULE
heptan-4-one
   22    21     0     0     0
SMALL
USER_CHARGES

@<TRIPOS>ATOM
      1 C1          2.6506    2.6141    2.8467 C.2       1 MOL         0.5622
      2 C2          1.0139    0.3945    0.1167 C.3       1 MOL        -0.0934
      3 C3          5.4839    4.5631    4.6448 C.3       1 MOL        -0.0934
      4 C4          2.5198    1.7872    1.5770 C.3       1 MOL        -0.1824
      5 C5          4.0251    3.2153    3.0973 C.3       1 MOL        -0.1824
      6 C6          1.1267    1.1877    1.4083 C.3       1 MOL        -0.0763
      7 C7          4.0924    4.0014    4.4033 C.3       1 MOL        -0.0763
      8 O1          1.7088    2.7842    3.6191 O.2       1 MOL        -0.5300
      9 H1          1.2388    1.0233   -0.7508 H         1 MOL         0.0337
     10 H2          1.7202   -0.4417    0.1222 H         1 MOL         0.0337
     11 H3          0.0055   -0.0134   -0.0062 H         1 MOL         0.0337
     12 H4          6.2307    3.7630    4.6716 H         1 MOL         0.0337
     13 H5          5.7575    5.2565    3.8432 H         1 MOL         0.0337
     14 H6          5.5279    5.1068    5.5940 H         1 MOL         0.0337
     15 H7          2.7509    2.4380    0.7263 H         1 MOL         0.0634
     16 H8          3.2675    0.9874    1.6180 H         1 MOL         0.0634
     17 H9          4.2633    3.8729    2.2539 H         1 MOL         0.0634
     18 H10         4.7521    2.3958    3.1172 H         1 MOL         0.0634
     19 H11         0.8963    0.5322    2.2565 H         1 MOL         0.0541
     20 H12         0.3739    1.9849    1.4103 H         1 MOL         0.0541
     21 H13         3.3687    4.8250    4.3819 H         1 MOL         0.0541
     22 H14         3.8122    3.3554    5.2438 H         1 MOL         0.0541
@<TRIPOS>BOND
     1    1    4 1
     2    1    5 1
     3    1    8 2
     4    2    6 1
     5    3    7 1
     6    4    6 1
     7    5    7 1
     8    2    9 1
     9    2   10 1
    10    2   11 1
    11    3   12 1
    12    3   13 1
    13    3   14 1
    14    4   15 1
    15    4   16 1
    16    5   17 1
    17    5   18 1
    18    6   19 1
    19    6   20 1
    20    7   21 1
    21    7   22 1
