@<TRIPOS>MOLECULE
N2-ethyl-N4-isopropyl-6-methylsulfanyl-1,3,5-triazine-2,4-diamine
   32    32     0     0     0
SMALL
USER_CHARGES

@<TRIPOS>ATOM
      1 C1          0.8368   -1.9476   -1.9785 C.ar      1 MOL         0.9199
      2 C2          1.9470   -1.7979   -0.0338 C.ar      1 MOL         0.9158
      3 C3          2.7019   -3.1535   -1.6553 C.ar      1 MOL         0.7992
      4 C4         -1.6684   -1.5231   -4.7447 C.3       1 MOL        -0.1257
      5 C5          2.8833   -2.9859    2.7643 C.3       1 MOL        -0.1088
      6 C6          3.3509   -0.5442    3.1713 C.3       1 MOL        -0.1088
      7 C7          4.3804   -5.0913   -0.6855 C.3       1 MOL        -0.0536
      8 C8         -0.4331   -2.0793   -4.1222 C.3       1 MOL         0.2276
      9 C9          3.1858   -1.6378    2.1262 C.3       1 MOL         0.2324
     10 N1          0.8950   -1.3867   -0.7597 N.ar      1 MOL        -0.8389
     11 N2          1.7020   -2.8361   -2.4935 N.ar      1 MOL        -0.7789
     12 N3          2.8888   -2.6761   -0.4143 N.ar      1 MOL        -0.7728
     13 N4         -0.2439   -1.5643   -2.8023 N.pl3     1 MOL        -0.8579
     14 N5          2.0725   -1.2697    1.2178 N.pl3     1 MOL        -0.8451
     15 S1          3.9017   -4.3271   -2.2507 S.3       1 MOL        -0.2798
     16 H1         -2.5546   -1.7863   -4.1570 H         1 MOL         0.0471
     17 H2         -1.6042   -0.4331   -4.8328 H         1 MOL         0.0471
     18 H3         -1.7956   -1.9375   -5.7519 H         1 MOL         0.0471
     19 H4          1.9716   -2.9356    3.3683 H         1 MOL         0.0468
     20 H5          2.7482   -3.7658    2.0065 H         1 MOL         0.0468
     21 H6          3.7054   -3.3001    3.4167 H         1 MOL         0.0468
     22 H7          2.4467   -0.4519    3.7829 H         1 MOL         0.0468
     23 H8          3.5390    0.4241    2.6961 H         1 MOL         0.0468
     24 H9          4.1853   -0.7600    3.8482 H         1 MOL         0.0468
     25 H10         5.1349   -5.8615   -0.8633 H         1 MOL         0.0702
     26 H11         3.5075   -5.5495   -0.2141 H         1 MOL         0.0702
     27 H12         4.7934   -4.3346   -0.0140 H         1 MOL         0.0702
     28 H13         0.4478   -1.8128   -4.7139 H         1 MOL         0.0543
     29 H14        -0.4922   -3.1692   -4.0494 H         1 MOL         0.0543
     30 H15         4.1004   -1.7117    1.5278 H         1 MOL         0.0507
     31 H16        -0.8906   -0.9007   -2.4214 H         1 MOL         0.4455
     32 H17         1.4155   -0.6117    1.5745 H         1 MOL         0.4375
@<TRIPOS>BOND
     1    1   10 ar
     2    1   11 ar
     3    1   13 1
     4    2   10 ar
     5    2   12 ar
     6    2   14 1
     7    3   11 ar
     8    3   12 ar
     9    3   15 1
    10    4    8 1
    11    5    9 1
    12    6    9 1
    13    7   15 1
    14    8   13 1
    15    9   14 1
    16    4   16 1
    17    4   17 1
    18    4   18 1
    19    5   19 1
    20    5   20 1
    21    5   21 1
    22    6   22 1
    23    6   23 1
    24    6   24 1
    25    7   25 1
    26    7   26 1
    27    7   27 1
    28    8   28 1
    29    8   29 1
    30    9   30 1
    31   13   31 1
    32   14   32 1
