@<TRIPOS>MOLECULE
6-chloro-N2,N4-diethyl-1,3,5-triazine-2,4-diamine
   25    25     0     0     0
SMALL
USER_CHARGES

@<TRIPOS>ATOM
      1 C1          2.1748   -1.6751   -0.7209 C.ar      1 MOL         0.9259
      2 C2          3.0147   -1.9278   -2.7867 C.ar      1 MOL         0.9259
      3 C3          0.9415   -2.6510   -2.3221 C.ar      1 MOL         0.8005
      4 C4          3.3281   -0.2196    2.5326 C.3       1 MOL        -0.1215
      5 C5          6.2517   -1.1229   -4.5130 C.3       1 MOL        -0.1215
      6 C6          3.4973   -0.5988    1.1007 C.3       1 MOL         0.2038
      7 C7          5.3134   -1.1412   -3.3546 C.3       1 MOL         0.2038
      8 N1          3.2221   -1.4791   -1.5384 N.ar      1 MOL        -0.8483
      9 N2          1.0055   -2.2522   -1.0415 N.ar      1 MOL        -0.7950
     10 N3          1.9035   -2.5226   -3.2500 N.ar      1 MOL        -0.7950
     11 N4          2.3152   -1.2363    0.5901 N.pl3     1 MOL        -0.8293
     12 N5          4.0721   -1.7572   -3.7059 N.pl3     1 MOL        -0.8293
     13 Cl1        -0.5111   -3.3990   -2.8207 Cl        1 MOL        -0.1155
     14 H1          2.4953    0.4814    2.6553 H         1 MOL         0.0454
     15 H2          3.1491   -1.1050    3.1523 H         1 MOL         0.0454
     16 H3          4.2388    0.2705    2.8970 H         1 MOL         0.0454
     17 H4          6.4724   -2.1405   -4.8532 H         1 MOL         0.0454
     18 H5          5.8331   -0.5468   -5.3453 H         1 MOL         0.0454
     19 H6          7.1974   -0.6529   -4.2175 H         1 MOL         0.0454
     20 H7          4.3303   -1.2988    0.9853 H         1 MOL         0.0639
     21 H8          3.6916    0.2847    0.4856 H         1 MOL         0.0639
     22 H9          5.0975   -0.1221   -3.0200 H         1 MOL         0.0639
     23 H10         5.7398   -1.7036   -2.5187 H         1 MOL         0.0639
     24 H11         1.5306   -1.3790    1.2216 H         1 MOL         0.4339
     25 H12         3.9200   -2.0899   -4.6388 H         1 MOL         0.4339
@<TRIPOS>BOND
     1    1    8 ar
     2    1    9 ar
     3    1   11 1
     4    2    8 ar
     5    2   10 ar
     6    2   12 1
     7    3    9 ar
     8    3   10 ar
     9    3   13 1
    10    4    6 1
    11    5    7 1
    12    6   11 1
    13    7   12 1
    14    4   14 1
    15    4   15 1
    16    4   16 1
    17    5   17 1
    18    5   18 1
    19    5   19 1
    20    6   20 1
    21    6   21 1
    22    7   22 1
    23    7   23 1
    24   11   24 1
    25   12   25 1
