@<TRIPOS>MOLECULE
prop-2-en-1-ol
   10     9     0     0     0
SMALL
USER_CHARGES

@<TRIPOS>ATOM
      1 C1         -0.4683    0.6052    0.7686 C.2       1 MOL        -0.2063
      2 C2         -1.5851    0.1863    1.3739 C.2       1 MOL        -0.1654
      3 C3         -2.2686   -1.1037    1.0626 C.3       1 MOL         0.1596
      4 O1         -2.3092   -1.8950    2.2417 O.3       1 MOL        -0.5956
      5 H1         -0.0040    1.5507    1.0257 H         1 MOL         0.1132
      6 H2          0.0000    0.0000    0.0000 H         1 MOL         0.1132
      7 H3         -2.0350    0.8201    2.1337 H         1 MOL         0.1320
      8 H4         -1.7500   -1.6681    0.2812 H         1 MOL         0.0252
      9 H5         -3.2951   -0.9099    0.7364 H         1 MOL         0.0252
     10 H6         -2.7577   -2.7240    2.0082 H         1 MOL         0.3988
@<TRIPOS>BOND
     1    1    2 2
     2    2    3 1
     3    3    4 1
     4    1    5 1
     5    1    6 1
     6    2    7 1
     7    3    8 1
     8    3    9 1
     9    4   10 1
