@<TRIPOS>MOLECULE
1-(4-pyridyl)ethanone
   16    16     0     0     0
SMALL
USER_CHARGES

@<TRIPOS>ATOM
      1 C1          0.2265   -0.4197    0.9733 C.ar      1 MOL        -0.2157
      2 C2          1.6520   -0.6227    2.8997 C.ar      1 MOL        -0.2157
      3 C3         -0.6317   -1.3224    1.5803 C.ar      1 MOL         0.3925
      4 C4          0.7299   -1.5161    3.4206 C.ar      1 MOL         0.3925
      5 C5          1.3879   -0.0684    1.6522 C.ar      1 MOL        -0.1238
      6 C6          2.3223    0.8750    1.0600 C.2       1 MOL         0.5736
      7 C7          2.4078    0.9192   -0.4382 C.3       1 MOL        -0.1996
      8 N1         -0.4092   -1.8816    2.7908 N.ar      1 MOL        -0.6529
      9 O1          3.0536    1.6384    1.6946 O.2       1 MOL        -0.5109
     10 H1         -0.0108   -0.0052   -0.0008 H         1 MOL         0.1504
     11 H2          2.5483   -0.3695    3.4560 H         1 MOL         0.1504
     12 H3         -1.5513   -1.6283    1.0929 H         1 MOL         0.0272
     13 H4          0.8894   -1.9765    4.3899 H         1 MOL         0.0272
     14 H5          1.7116    1.6343   -0.9043 H         1 MOL         0.0684
     15 H6          2.2397   -0.0610   -0.9107 H         1 MOL         0.0684
     16 H7          3.3983    1.2378   -0.8091 H         1 MOL         0.0684
@<TRIPOS>BOND
     1    1    3 ar
     2    1    5 ar
     3    2    4 ar
     4    2    5 ar
     5    3    8 ar
     6    4    8 ar
     7    5    6 1
     8    6    7 1
     9    6    9 2
    10    1   10 1
    11    2   11 1
    12    3   12 1
    13    4   13 1
    14    7   14 1
    15    7   15 1
    16    7   16 1
