@<TRIPOS>MOLECULE
1,1,2,3,3,3-hexafluoroprop-1-ene
    9     8     0     0     0
SMALL
USER_CHARGES

@<TRIPOS>ATOM
      1 C1          0.2302    0.0259    0.4913 C.2       1 MOL        -0.0544
      2 C2         -0.9363   -0.4461    0.9412 C.2       1 MOL         0.3778
      3 C3          0.5481    0.3055   -0.9341 C.3       1 MOL         0.6928
      4 F1          1.1998    0.2690    1.4040 F         1 MOL        -0.1118
      5 F2         -1.1323   -0.6692    2.2574 F         1 MOL        -0.1286
      6 F3         -1.9323   -0.7033    0.0671 F         1 MOL        -0.1286
      7 F4          1.8040    0.7802   -1.1293 F         1 MOL        -0.2157
      8 F5          0.4302   -0.8131   -1.6937 F         1 MOL        -0.2157
      9 F6         -0.3028    1.2244   -1.4574 F         1 MOL        -0.2157
@<TRIPOS>BOND
     1    1    2 2
     2    1    3 1
     3    1    4 1
     4    2    5 1
     5    2    6 1
     6    3    7 1
     7    3    8 1
     8    3    9 1
