@<TRIPOS>MOLECULE
1-isopropyl-4-methyl-benzene
   24    24     0     0     0
SMALL
USER_CHARGES

@<TRIPOS>ATOM
      1 C1          1.8851   -1.0363   -0.1124 C.ar      1 MOL        -0.1298
      2 C2          2.8783   -1.6520    2.0022 C.ar      1 MOL        -0.1298
      3 C3          0.8066   -0.4630    0.5610 C.ar      1 MOL        -0.1231
      4 C4          1.7997   -1.0786    2.6757 C.ar      1 MOL        -0.1231
      5 C5          2.9210   -1.6309    0.6081 C.ar      1 MOL        -0.0802
      6 C6          0.7638   -0.4841    1.9551 C.ar      1 MOL        -0.0774
      7 C7          4.0745   -2.2441   -0.1111 C.3       1 MOL        -0.0530
      8 C8          0.0373    1.3069    3.5730 C.3       1 MOL        -0.0872
      9 C9         -1.1829   -0.8978    3.5020 C.3       1 MOL        -0.0872
     10 C10        -0.3890    0.1306    2.6744 C.3       1 MOL        -0.0232
     11 H1          1.9098   -1.0158   -1.1988 H         1 MOL         0.1299
     12 H2          3.6818   -2.1121    2.5715 H         1 MOL         0.1299
     13 H3          0.0048   -0.0006   -0.0085 H         1 MOL         0.1299
     14 H4          1.7742   -1.0996    3.7620 H         1 MOL         0.1299
     15 H5          4.8665   -1.5012   -0.2664 H         1 MOL         0.0433
     16 H6          4.4940   -3.0867    0.4537 H         1 MOL         0.0433
     17 H7          3.7702   -2.6379   -1.0897 H         1 MOL         0.0433
     18 H8          0.7549    0.9906    4.3379 H         1 MOL         0.0360
     19 H9         -0.8223    1.7504    4.0872 H         1 MOL         0.0360
     20 H10         0.5120    2.0926    2.9747 H         1 MOL         0.0360
     21 H11        -0.5371   -1.3632    4.2551 H         1 MOL         0.0360
     22 H12        -1.5876   -1.6949    2.8688 H         1 MOL         0.0360
     23 H13        -2.0241   -0.4308    4.0259 H         1 MOL         0.0360
     24 H14        -1.1061    0.5509    1.9439 H         1 MOL         0.0483
@<TRIPOS>BOND
     1    1    3 ar
     2    1    5 ar
     3    2    4 ar
     4    2    5 ar
     5    3    6 ar
     6    4    6 ar
     7    5    7 1
     8    6   10 1
     9    8   10 1
    10    9   10 1
    11    1   11 1
    12    2   12 1
    13    3   13 1
    14    4   14 1
    15    7   15 1
    16    7   16 1
    17    7   17 1
    18    8   18 1
    19    8   19 1
    20    8   20 1
    21    9   21 1
    22    9   22 1
    23    9   23 1
    24   10   24 1
