@<TRIPOS>MOLECULE
4-methyl-1H-imidazole
   12    12     0     0     0
SMALL
USER_CHARGES

@<TRIPOS>ATOM
      1 C1          0.6549   -0.7784   -0.3640 C.2       1 MOL        -0.2600
      2 C2          1.3133   -2.8020   -0.9371 C.2       1 MOL         0.3862
      3 C3          1.9499   -0.7740   -0.8259 C.2       1 MOL         0.3048
      4 C4          2.8640    0.3704   -0.9623 C.3       1 MOL        -0.1149
      5 N1          2.3537   -2.0366   -1.1813 N.2       1 MOL        -0.6636
      6 N2          0.2603   -2.0844   -0.4416 N.pl3     1 MOL        -0.3241
      7 H1         -0.0017   -0.0013    0.0001 H         1 MOL         0.1772
      8 H2          1.2572   -3.8698   -1.0946 H         1 MOL         0.0595
      9 H3          3.4559    0.5244   -0.0429 H         1 MOL         0.0456
     10 H4          3.5771    0.2399   -1.7967 H         1 MOL         0.0456
     11 H5          2.3263    1.3133   -1.1715 H         1 MOL         0.0456
     12 H6         -0.6443   -2.4529   -0.1796 H         1 MOL         0.2981
@<TRIPOS>BOND
     1    1    3 2
     2    1    6 1
     3    2    5 2
     4    2    6 1
     5    3    4 1
     6    3    5 1
     7    1    7 1
     8    2    8 1
     9    4    9 1
    10    4   10 1
    11    4   11 1
    12    6   12 1
