@<TRIPOS>MOLECULE
ethyl butanoate
   20    19     0     0     0
SMALL
USER_CHARGES

@<TRIPOS>ATOM
      1 C1          2.6749   -0.7723    3.1243 C.2       1 MOL         0.6428
      2 C2         -0.3781   -0.6942    0.7529 C.3       1 MOL        -0.0958
      3 C3          6.2701   -1.3321    3.5399 C.3       1 MOL        -0.1303
      4 C4          1.8852   -0.8881    1.8405 C.3       1 MOL        -0.1406
      5 C5          0.4001   -0.6068    2.0556 C.3       1 MOL        -0.0779
      6 C6          4.8658   -0.9912    3.9907 C.3       1 MOL         0.1575
      7 O1          2.2091   -0.4717    4.2148 O.2       1 MOL        -0.5077
      8 O2          3.9853   -1.0584    2.8643 O.3       1 MOL        -0.4765
      9 H1          0.0240    0.0152    0.0227 H         1 MOL         0.0369
     10 H2         -0.3119   -1.6988    0.3229 H         1 MOL         0.0369
     11 H3         -1.4351   -0.4565    0.9109 H         1 MOL         0.0369
     12 H4          6.3120   -2.3427    3.1241 H         1 MOL         0.0515
     13 H5          6.6146   -0.6227    2.7803 H         1 MOL         0.0515
     14 H6          6.9713   -1.2659    4.3785 H         1 MOL         0.0515
     15 H7          2.2964   -0.1716    1.1205 H         1 MOL         0.0783
     16 H8          2.0160   -1.9032    1.4493 H         1 MOL         0.0783
     17 H9         -0.0159   -1.3233    2.7741 H         1 MOL         0.0555
     18 H10         0.2672    0.3908    2.4908 H         1 MOL         0.0555
     19 H11         4.8309    0.0206    4.4056 H         1 MOL         0.0478
     20 H12         4.5228   -1.7015    4.7490 H         1 MOL         0.0478
@<TRIPOS>BOND
     1    1    4 1
     2    1    7 2
     3    1    8 1
     4    2    5 1
     5    3    6 1
     6    4    5 1
     7    6    8 1
     8    2    9 1
     9    2   10 1
    10    2   11 1
    11    3   12 1
    12    3   13 1
    13    3   14 1
    14    4   15 1
    15    4   16 1
    16    5   17 1
    17    5   18 1
    18    6   19 1
    19    6   20 1
