@<TRIPOS>MOLECULE
o-cresol
   16    16     0     0     0
SMALL
USER_CHARGES

@<TRIPOS>ATOM
      1 C1          1.8851   -1.0363   -0.1124 C.ar      1 MOL        -0.1610
      2 C2          0.8066   -0.4630    0.5610 C.ar      1 MOL        -0.0976
      3 C3          2.9210   -1.6309    0.6081 C.ar      1 MOL        -0.1011
      4 C4          0.7638   -0.4841    1.9551 C.ar      1 MOL        -0.2101
      5 C5          2.8783   -1.6520    2.0022 C.ar      1 MOL        -0.0988
      6 C6          1.7997   -1.0786    2.6757 C.ar      1 MOL         0.1231
      7 C7          3.9959   -2.2923    2.7570 C.3       1 MOL        -0.0451
      8 O1          1.7429   -1.0900    4.0369 O.3       1 MOL        -0.5002
      9 H1          1.9192   -1.0196   -1.1981 H         1 MOL         0.1333
     10 H2          0.0007    0.0005   -0.0004 H         1 MOL         0.1307
     11 H3          3.7577   -2.0735    0.0741 H         1 MOL         0.1340
     12 H4         -0.0790   -0.0358    2.4741 H         1 MOL         0.1328
     13 H5          4.7769   -1.5553    2.9782 H         1 MOL         0.0472
     14 H6          3.6419   -2.7205    3.7031 H         1 MOL         0.0472
     15 H7          4.4432   -3.1136    2.1830 H         1 MOL         0.0472
     16 H8          0.9328   -0.6524    4.3420 H         1 MOL         0.4184
@<TRIPOS>BOND
     1    1    2 ar
     2    1    3 ar
     3    2    4 ar
     4    3    5 ar
     5    4    6 ar
     6    5    6 ar
     7    5    7 1
     8    6    8 1
     9    1    9 1
    10    2   10 1
    11    3   11 1
    12    4   12 1
    13    7   13 1
    14    7   14 1
    15    7   15 1
    16    8   16 1
