@<TRIPOS>MOLECULE
1-ethyl-2-methyl-benzene
   21    21     0     0     0
SMALL
USER_CHARGES

@<TRIPOS>ATOM
      1 C1          1.8851   -1.0363   -0.1124 C.ar      1 MOL        -0.1301
      2 C2          0.8066   -0.4630    0.5610 C.ar      1 MOL        -0.1329
      3 C3          2.9210   -1.6309    0.6081 C.ar      1 MOL        -0.1320
      4 C4          0.7638   -0.4841    1.9551 C.ar      1 MOL        -0.1263
      5 C5          2.8783   -1.6520    2.0022 C.ar      1 MOL        -0.0719
      6 C6          1.7997   -1.0786    2.6757 C.ar      1 MOL        -0.0745
      7 C7          3.9980   -2.2951    2.7528 C.3       1 MOL        -0.0555
      8 C8          1.3198   -2.4499    4.7192 C.3       1 MOL        -0.0904
      9 C9          1.7323   -1.0885    4.1677 C.3       1 MOL        -0.0369
     10 H1          1.9184   -1.0189   -1.1977 H         1 MOL         0.1295
     11 H2          0.0005    0.0001   -0.0007 H         1 MOL         0.1302
     12 H3          3.7577   -2.0734    0.0740 H         1 MOL         0.1287
     13 H4         -0.0811   -0.0352    2.4707 H         1 MOL         0.1291
     14 H5          4.7800   -1.5591    2.9726 H         1 MOL         0.0443
     15 H6          3.6459   -2.7242    3.6989 H         1 MOL         0.0443
     16 H7          4.4421   -3.1156    2.1757 H         1 MOL         0.0443
     17 H8          0.3521   -2.7625    4.3122 H         1 MOL         0.0361
     18 H9          1.2336   -2.4148    5.8097 H         1 MOL         0.0361
     19 H10         2.0566   -3.2183    4.4617 H         1 MOL         0.0361
     20 H11         2.7064   -0.8052    4.5959 H         1 MOL         0.0460
     21 H12         1.0231   -0.3246    4.5230 H         1 MOL         0.0460
@<TRIPOS>BOND
     1    1    2 ar
     2    1    3 ar
     3    2    4 ar
     4    3    5 ar
     5    4    6 ar
     6    5    6 ar
     7    5    7 1
     8    6    9 1
     9    8    9 1
    10    1   10 1
    11    2   11 1
    12    3   12 1
    13    4   13 1
    14    7   14 1
    15    7   15 1
    16    7   16 1
    17    8   17 1
    18    8   18 1
    19    8   19 1
    20    9   20 1
    21    9   21 1
