@<TRIPOS>MOLECULE
methanesulfonyl chloride
    8     7     0     0     0
SMALL
USER_CHARGES

@<TRIPOS>ATOM
      1 C1          0.7074   -0.5796    0.5951 C.3       1 MOL        -0.3871
      2 O1          3.0013    0.3940    1.4088 O.2       1 MOL        -0.5817
      3 O2          2.2829    0.7935   -0.9873 O.2       1 MOL        -0.5817
      4 S1          2.3350   -0.0475    0.1959 S.o2      1 MOL         1.3568
      5 Cl1         3.3748   -1.7137   -0.3936 Cl        1 MOL        -0.2250
      6 H1          0.2177   -0.9084   -0.3230 H         1 MOL         0.1396
      7 H2          0.7792   -1.4037    1.3064 H         1 MOL         0.1396
      8 H3          0.1689    0.2607    1.0359 H         1 MOL         0.1396
@<TRIPOS>BOND
     1    1    4 1
     2    2    4 2
     3    3    4 2
     4    4    5 1
     5    1    6 1
     6    1    7 1
     7    1    8 1
