@<TRIPOS>MOLECULE
1-bromoheptane
   23    22     0     0     0
SMALL
USER_CHARGES

@<TRIPOS>ATOM
      1 C1         -3.6399    0.5025    0.5265 C.3       1 MOL        -0.0919
      2 C2         -2.1621    0.6633    0.8451 C.3       1 MOL        -0.0801
      3 C3         -1.2838    0.0886   -0.2661 C.3       1 MOL        -0.0790
      4 C4          0.2024    0.2222    0.0741 C.3       1 MOL        -0.0777
      5 C5          1.0803   -0.3188   -1.0567 C.3       1 MOL        -0.0792
      6 C6          2.5792   -0.2206   -0.7603 C.3       1 MOL        -0.0814
      7 C7          3.4440   -0.7904   -1.8726 C.3       1 MOL        -0.0078
      8 Br1         5.3224   -0.6818   -1.3635 Br        1 MOL        -0.1809
      9 H1         -3.8803    1.0005   -0.4180 H         1 MOL         0.0336
     10 H2         -3.9077   -0.5546    0.4307 H         1 MOL         0.0336
     11 H3         -4.2611    0.9448    1.3117 H         1 MOL         0.0336
     12 H4         -1.9416    0.1586    1.7930 H         1 MOL         0.0386
     13 H5         -1.9379    1.7274    0.9841 H         1 MOL         0.0386
     14 H6         -1.4942    0.6111   -1.2072 H         1 MOL         0.0389
     15 H7         -1.5315   -0.9687   -0.4208 H         1 MOL         0.0389
     16 H8          0.4076   -0.3225    1.0024 H         1 MOL         0.0415
     17 H9          0.4439    1.2765    0.2547 H         1 MOL         0.0415
     18 H10         0.8748    0.2489   -1.9728 H         1 MOL         0.0418
     19 H11         0.8146   -1.3622   -1.2657 H         1 MOL         0.0418
     20 H12         2.8278    0.8376   -0.6077 H         1 MOL         0.0560
     21 H13         2.7998   -0.7283    0.1872 H         1 MOL         0.0560
     22 H14         3.2433   -1.8481   -2.0591 H         1 MOL         0.0719
     23 H15         3.3409   -0.2256   -2.8029 H         1 MOL         0.0719
@<TRIPOS>BOND
     1    1    2 1
     2    2    3 1
     3    3    4 1
     4    4    5 1
     5    5    6 1
     6    6    7 1
     7    7    8 1
     8    1    9 1
     9    1   10 1
    10    1   11 1
    11    2   12 1
    12    2   13 1
    13    3   14 1
    14    3   15 1
    15    4   16 1
    16    4   17 1
    17    5   18 1
    18    5   19 1
    19    6   20 1
    20    6   21 1
    21    7   22 1
    22    7   23 1
