@<TRIPOS>MOLECULE
4-hydroxybenzonitrile
   14    14     0     0     0
SMALL
USER_CHARGES

@<TRIPOS>ATOM
      1 C1          4.0261   -2.2187   -0.0810 C.1       1 MOL         0.2379
      2 C2          1.8851   -1.0363   -0.1124 C.ar      1 MOL        -0.0536
      3 C3          2.8783   -1.6520    2.0022 C.ar      1 MOL        -0.0536
      4 C4          0.8066   -0.4630    0.5610 C.ar      1 MOL        -0.1924
      5 C5          1.7997   -1.0786    2.6757 C.ar      1 MOL        -0.1924
      6 C6          2.9210   -1.6309    0.6081 C.ar      1 MOL        -0.0575
      7 C7          0.7638   -0.4841    1.9551 C.ar      1 MOL         0.1492
      8 N1          4.9236   -2.6961   -0.6408 N.1       1 MOL        -0.3677
      9 O1         -0.2890    0.0749    2.6120 O.3       1 MOL        -0.4905
     10 H1          1.9043   -1.0123   -1.1994 H         1 MOL         0.1474
     11 H2          3.6781   -2.1116    2.5780 H         1 MOL         0.1474
     12 H3          0.0022   -0.0017   -0.0055 H         1 MOL         0.1506
     13 H4          1.7723   -1.0988    3.7618 H         1 MOL         0.1506
     14 H5         -0.1749   -0.0187    3.5713 H         1 MOL         0.4246
@<TRIPOS>BOND
     1    1    6 1
     2    1    8 3
     3    2    4 ar
     4    2    6 ar
     5    3    5 ar
     6    3    6 ar
     7    4    7 ar
     8    5    7 ar
     9    7    9 1
    10    2   10 1
    11    3   11 1
    12    4   12 1
    13    5   13 1
    14    9   14 1
