@<TRIPOS>MOLECULE
fluorobenzene
   12    12     0     0     0
SMALL
USER_CHARGES

@<TRIPOS>ATOM
      1 C1          1.8851   -1.0363   -0.1124 C.ar      1 MOL        -0.1451
      2 C2          0.8066   -0.4630    0.5610 C.ar      1 MOL        -0.1048
      3 C3          2.9210   -1.6309    0.6081 C.ar      1 MOL        -0.1048
      4 C4          0.7638   -0.4841    1.9551 C.ar      1 MOL        -0.1660
      5 C5          2.8783   -1.6520    2.0022 C.ar      1 MOL        -0.1660
      6 C6          1.7997   -1.0786    2.6757 C.ar      1 MOL         0.1244
      7 F1          1.7584   -1.0989    4.0143 F         1 MOL        -0.1419
      8 H1          1.9187   -1.0200   -1.1979 H         1 MOL         0.1358
      9 H2         -0.0000   -0.0000    0.0000 H         1 MOL         0.1371
     10 H3          3.7609   -2.0773    0.0839 H         1 MOL         0.1371
     11 H4         -0.0758   -0.0378    2.4796 H         1 MOL         0.1472
     12 H5          3.6847   -2.1150    2.5631 H         1 MOL         0.1472
@<TRIPOS>BOND
     1    1    2 ar
     2    1    3 ar
     3    2    4 ar
     4    3    5 ar
     5    4    6 ar
     6    5    6 ar
     7    6    7 1
     8    1    8 1
     9    2    9 1
    10    3   10 1
    11    4   11 1
    12    5   12 1
