@<TRIPOS>MOLECULE
3,4-dichlorophenol
   13    13     0     0     0
SMALL
USER_CHARGES

@<TRIPOS>ATOM
      1 C1          1.8851   -1.0363   -0.1124 C.ar      1 MOL        -0.1487
      2 C2          0.8066   -0.4630    0.5610 C.ar      1 MOL        -0.0825
      3 C3          2.8783   -1.6520    2.0022 C.ar      1 MOL        -0.2088
      4 C4          2.9210   -1.6309    0.6081 C.ar      1 MOL         0.1361
      5 C5          0.7638   -0.4841    1.9551 C.ar      1 MOL        -0.0196
      6 C6          1.7997   -1.0786    2.6757 C.ar      1 MOL         0.0579
      7 O1          3.9734   -2.1896   -0.0495 O.3       1 MOL        -0.4904
      8 Cl1        -0.5987    0.2429    2.7314 Cl        1 MOL        -0.0700
      9 Cl2         1.8043   -1.1366    4.4034 Cl        1 MOL        -0.0663
     10 H1          1.9129   -1.0168   -1.1987 H         1 MOL         0.1593
     11 H2          0.0079   -0.0037   -0.0160 H         1 MOL         0.1553
     12 H3          3.6915   -2.1181    2.5543 H         1 MOL         0.1527
     13 H4          4.6080   -2.5601    0.5845 H         1 MOL         0.4248
@<TRIPOS>BOND
     1    1    2 ar
     2    1    4 ar
     3    2    5 ar
     4    3    4 ar
     5    3    6 ar
     6    4    7 1
     7    5    6 ar
     8    5    8 1
     9    6    9 1
    10    1   10 1
    11    2   11 1
    12    3   12 1
    13    7   13 1
