@<TRIPOS>MOLECULE
nonanal
   28    27     0     0     0
SMALL
USER_CHARGES

@<TRIPOS>ATOM
      1 C1          0.7585   -4.8486   -1.5235 C.2       1 MOL         0.5635
      2 C2         -0.9069    4.8955    0.7916 C.3       1 MOL        -0.0925
      3 C3         -0.1750   -3.8252   -0.9198 C.3       1 MOL        -0.1991
      4 C4         -1.4316    3.4720    0.9030 C.3       1 MOL        -0.0799
      5 C5          0.3648   -2.3980   -0.9519 C.3       1 MOL        -0.0746
      6 C6         -0.4883    2.4759    0.2275 C.3       1 MOL        -0.0792
      7 C7         -0.6057   -1.3910   -0.3265 C.3       1 MOL        -0.0785
      8 C8         -1.0077    1.0354    0.2493 C.3       1 MOL        -0.0783
      9 C9         -0.0524    0.0344   -0.4043 C.3       1 MOL        -0.0790
     10 O1          1.8834   -4.6088   -1.9484 O.2       1 MOL        -0.5239
     11 H1          0.3469   -5.8712   -1.5844 H         1 MOL        -0.0099
     12 H2          0.0857    4.9848    1.2445 H         1 MOL         0.0328
     13 H3         -0.8276    5.1889   -0.2599 H         1 MOL         0.0328
     14 H4         -1.5779    5.6011    1.2918 H         1 MOL         0.0328
     15 H5         -0.3986   -4.1331    0.1069 H         1 MOL         0.0654
     16 H6         -1.1065   -3.8749   -1.4946 H         1 MOL         0.0654
     17 H7         -2.4240    3.4181    0.4411 H         1 MOL         0.0379
     18 H8         -1.5508    3.2255    1.9633 H         1 MOL         0.0379
     19 H9          0.5385   -2.1167   -1.9978 H         1 MOL         0.0540
     20 H10         1.3345   -2.3473   -0.4422 H         1 MOL         0.0540
     21 H11         0.4989    2.5183    0.7036 H         1 MOL         0.0402
     22 H12        -0.3461    2.7714   -0.8195 H         1 MOL         0.0402
     23 H13        -0.7953   -1.6497    0.7214 H         1 MOL         0.0380
     24 H14        -1.5688   -1.4389   -0.8493 H         1 MOL         0.0380
     25 H15        -1.9685    1.0109   -0.2801 H         1 MOL         0.0388
     26 H16        -1.2103    0.7331    1.2841 H         1 MOL         0.0388
     27 H17         0.1070    0.3095   -1.4538 H         1 MOL         0.0422
     28 H18         0.9233    0.0663    0.0930 H         1 MOL         0.0422
@<TRIPOS>BOND
     1    1    3 1
     2    1   10 2
     3    2    4 1
     4    3    5 1
     5    4    6 1
     6    5    7 1
     7    6    8 1
     8    7    9 1
     9    8    9 1
    10    1   11 1
    11    2   12 1
    12    2   13 1
    13    2   14 1
    14    3   15 1
    15    3   16 1
    16    4   17 1
    17    4   18 1
    18    5   19 1
    19    5   20 1
    20    6   21 1
    21    6   22 1
    22    7   23 1
    23    7   24 1
    24    8   25 1
    25    8   26 1
    26    9   27 1
    27    9   28 1
