@<TRIPOS>MOLECULE
bromomethylbenzene
   15    15     0     0     0
SMALL
USER_CHARGES

@<TRIPOS>ATOM
      1 C1          1.8851   -1.0363   -0.1124 C.ar      1 MOL        -0.1214
      2 C2          0.8066   -0.4630    0.5610 C.ar      1 MOL        -0.1292
      3 C3          2.9210   -1.6309    0.6081 C.ar      1 MOL        -0.1292
      4 C4          0.7638   -0.4841    1.9551 C.ar      1 MOL        -0.1123
      5 C5          2.8783   -1.6520    2.0022 C.ar      1 MOL        -0.1123
      6 C6          1.7997   -1.0786    2.6757 C.ar      1 MOL        -0.0929
      7 C7          1.7548   -1.1014    4.1663 C.3       1 MOL         0.0389
      8 Br1         0.4392   -2.4066    4.7580 Br        1 MOL        -0.1720
      9 H1          1.9176   -1.0210   -1.1980 H         1 MOL         0.1329
     10 H2         -0.0006   -0.0010    0.0001 H         1 MOL         0.1342
     11 H3          3.7604   -2.0783    0.0841 H         1 MOL         0.1342
     12 H4         -0.0804   -0.0348    2.4713 H         1 MOL         0.1355
     13 H5          3.6899   -2.1173    2.5553 H         1 MOL         0.1355
     14 H6          1.4610   -0.1334    4.5878 H         1 MOL         0.0791
     15 H7          2.7161   -1.3901    4.6065 H         1 MOL         0.0791
@<TRIPOS>BOND
     1    1    2 ar
     2    1    3 ar
     3    2    4 ar
     4    3    5 ar
     5    4    6 ar
     6    5    6 ar
     7    6    7 1
     8    7    8 1
     9    1    9 1
    10    2   10 1
    11    3   11 1
    12    4   12 1
    13    5   13 1
    14    7   14 1
    15    7   15 1
