@<TRIPOS>MOLECULE
ethyl hexanoate
   26    25     0     0     0
SMALL
USER_CHARGES

@<TRIPOS>ATOM
      1 C1          1.6363   -0.8882    5.0705 C.2       1 MOL         0.6344
      2 C2         -0.0778    4.7906    2.7190 C.3       1 MOL        -0.0955
      3 C3          3.6410   -3.0216    7.2707 C.3       1 MOL        -0.1268
      4 C4          1.7849    0.6046    4.8759 C.3       1 MOL        -0.1289
      5 C5         -0.2159    3.2849    2.8782 C.3       1 MOL        -0.0783
      6 C6          0.7154    1.2021    3.9617 C.3       1 MOL        -0.0799
      7 C7          0.8868    2.7120    3.7688 C.3       1 MOL        -0.0773
      8 C8          2.5433   -2.7114    6.2756 C.3       1 MOL         0.1455
      9 O1          0.7896   -1.5884    4.5326 O.2       1 MOL        -0.5380
     10 O2          2.5780   -1.3151    5.9634 O.3       1 MOL        -0.4520
     11 H1         -0.1122    5.2926    3.6912 H         1 MOL         0.0351
     12 H2          0.8680    5.0486    2.2320 H         1 MOL         0.0351
     13 H3         -0.8941    5.1831    2.1047 H         1 MOL         0.0351
     14 H4          4.6236   -2.7813    6.8553 H         1 MOL         0.0498
     15 H5          3.4980   -2.4503    8.1938 H         1 MOL         0.0498
     16 H6          3.6237   -4.0813    7.5464 H         1 MOL         0.0498
     17 H7          2.7796    0.8162    4.4676 H         1 MOL         0.0774
     18 H8          1.7100    1.0684    5.8661 H         1 MOL         0.0774
     19 H9         -0.1776    2.8140    1.8890 H         1 MOL         0.0402
     20 H10        -1.1982    3.0574    3.3084 H         1 MOL         0.0402
     21 H11        -0.2680    1.0116    4.4088 H         1 MOL         0.0573
     22 H12         0.7254    0.6988    2.9874 H         1 MOL         0.0573
     23 H13         1.8637    2.9265    3.3202 H         1 MOL         0.0400
     24 H14         0.8647    3.2108    4.7455 H         1 MOL         0.0400
     25 H15         1.5633   -2.9540    6.6972 H         1 MOL         0.0559
     26 H16         2.6881   -3.2824    5.3537 H         1 MOL         0.0559
@<TRIPOS>BOND
     1    1    4 1
     2    1    9 2
     3    1   10 1
     4    2    5 1
     5    3    8 1
     6    4    6 1
     7    5    7 1
     8    6    7 1
     9    8   10 1
    10    2   11 1
    11    2   12 1
    12    2   13 1
    13    3   14 1
    14    3   15 1
    15    3   16 1
    16    4   17 1
    17    4   18 1
    18    5   19 1
    19    5   20 1
    20    6   21 1
    21    6   22 1
    22    7   23 1
    23    7   24 1
    24    8   25 1
    25    8   26 1
