@<TRIPOS>MOLECULE
2,6-dichlorobenzonitrile
   13    13     0     0     0
SMALL
USER_CHARGES

@<TRIPOS>ATOM
      1 C1          1.7565   -1.0993    4.1111 C.1       1 MOL         0.2321
      2 C2          1.8851   -1.0363   -0.1124 C.ar      1 MOL        -0.0921
      3 C3          0.8066   -0.4630    0.5610 C.ar      1 MOL        -0.1317
      4 C4          2.9210   -1.6309    0.6081 C.ar      1 MOL        -0.1317
      5 C5          1.7997   -1.0786    2.6757 C.ar      1 MOL        -0.0046
      6 C6          0.7638   -0.4841    1.9551 C.ar      1 MOL         0.0548
      7 C7          2.8783   -1.6520    2.0022 C.ar      1 MOL         0.0548
      8 N1          1.7216   -1.1161    5.2710 N.1       1 MOL        -0.3326
      9 Cl1        -0.6017    0.2437    2.7306 Cl        1 MOL        -0.0569
     10 Cl2         4.1943   -2.4046    2.8378 Cl        1 MOL        -0.0569
     11 H1          1.9182   -1.0205   -1.1977 H         1 MOL         0.1488
     12 H2          0.0082   -0.0037   -0.0166 H         1 MOL         0.1580
     13 H3          3.7541   -2.0724    0.0668 H         1 MOL         0.1580
@<TRIPOS>BOND
     1    1    5 1
     2    1    8 3
     3    2    3 ar
     4    2    4 ar
     5    3    6 ar
     6    4    7 ar
     7    5    6 ar
     8    5    7 ar
     9    6    9 1
    10    7   10 1
    11    2   11 1
    12    3   12 1
    13    4   13 1
