@<TRIPOS>MOLECULE
(2S)-1-butoxypropan-2-ol
   25    24     0     0     0
SMALL
USER_CHARGES

@<TRIPOS>ATOM
      1 C1         -7.2031    4.0562   -2.2768 C.3       1 MOL        -0.0910
      2 C2         -4.4494   -3.0691    1.7694 C.3       1 MOL        -0.1271
      3 C3         -6.8891    3.3356   -0.9755 C.3       1 MOL        -0.0794
      4 C4         -6.4271    1.9031   -1.2269 C.3       1 MOL        -0.0843
      5 C5         -6.0704    1.1916    0.0705 C.3       1 MOL         0.1324
      6 C6         -5.2865   -0.8451    0.9423 C.3       1 MOL         0.1308
      7 C7         -4.8106   -2.2375    0.5479 C.3       1 MOL         0.1403
      8 O1         -3.6530   -2.0985   -0.2745 O.3       1 MOL        -0.6076
      9 O2         -5.6355   -0.1266   -0.2333 O.3       1 MOL        -0.4270
     10 H1         -7.9789    3.5282   -2.8404 H         1 MOL         0.0347
     11 H2         -7.5510    5.0765   -2.0860 H         1 MOL         0.0347
     12 H3         -6.3078    4.1142   -2.9036 H         1 MOL         0.0347
     13 H4         -3.6826   -2.5624    2.3653 H         1 MOL         0.0468
     14 H5         -5.3234   -3.2431    2.4045 H         1 MOL         0.0468
     15 H6         -4.0296   -4.0372    1.4749 H         1 MOL         0.0468
     16 H7         -6.1108    3.8887   -0.4369 H         1 MOL         0.0383
     17 H8         -7.7832    3.3330   -0.3413 H         1 MOL         0.0383
     18 H9         -7.2094    1.3374   -1.7481 H         1 MOL         0.0538
     19 H10        -5.5572    1.8965   -1.8957 H         1 MOL         0.0538
     20 H11        -5.2619    1.7132    0.5926 H         1 MOL         0.0273
     21 H12        -6.9396    1.1274    0.7328 H         1 MOL         0.0273
     22 H13        -6.1745   -0.8959    1.5811 H         1 MOL         0.0402
     23 H14        -4.4967   -0.2899    1.4577 H         1 MOL         0.0402
     24 H15        -5.5776   -2.7442   -0.0481 H         1 MOL         0.0448
     25 H16        -3.3862   -2.9955   -0.5270 H         1 MOL         0.4043
@<TRIPOS>BOND
     1    1    3 1
     2    2    7 1
     3    3    4 1
     4    4    5 1
     5    5    9 1
     6    6    7 1
     7    6    9 1
     8    7    8 1
     9    1   10 1
    10    1   11 1
    11    1   12 1
    12    2   13 1
    13    2   14 1
    14    2   15 1
    15    3   16 1
    16    3   17 1
    17    4   18 1
    18    4   19 1
    19    5   20 1
    20    5   21 1
    21    6   22 1
    22    6   23 1
    23    7   24 1
    24    8   25 1
