@<TRIPOS>MOLECULE
N-(3,4-dichlorophenyl)propanamide
   22    22     0     0     0
SMALL
USER_CHARGES

@<TRIPOS>ATOM
      1 C1          1.8851   -1.0363   -0.1124 C.ar      1 MOL        -0.1559
      2 C2          0.8066   -0.4630    0.5610 C.ar      1 MOL        -0.0883
      3 C3          2.8783   -1.6520    2.0022 C.ar      1 MOL        -0.1804
      4 C4          2.9210   -1.6309    0.6081 C.ar      1 MOL         0.0874
      5 C5          0.7638   -0.4841    1.9551 C.ar      1 MOL        -0.0141
      6 C6          1.7997   -1.0786    2.6757 C.ar      1 MOL         0.0482
      7 C7          4.2169   -2.2806   -1.4511 C.2       1 MOL         0.6670
      8 C8          5.7785   -3.1249   -3.2550 C.3       1 MOL        -0.0877
      9 C9          5.5245   -2.9927   -1.7641 C.3       1 MOL        -0.1524
     10 N1          3.9994   -2.2048   -0.0659 N.am      1 MOL        -0.4770
     11 O1          3.4844   -1.8475   -2.3345 O.2       1 MOL        -0.5773
     12 Cl1        -0.5976    0.2455    2.7311 Cl        1 MOL        -0.0706
     13 Cl2         1.8048   -1.1344    4.4036 Cl        1 MOL        -0.0741
     14 H1          1.9079   -1.0158   -1.1990 H         1 MOL         0.1797
     15 H2          0.0074   -0.0054   -0.0168 H         1 MOL         0.1559
     16 H3          3.6900   -2.1161    2.5589 H         1 MOL         0.1465
     17 H4          4.9726   -3.6824   -3.7434 H         1 MOL         0.0496
     18 H5          6.7190   -3.6544   -3.4359 H         1 MOL         0.0496
     19 H6          5.8428   -2.1411   -3.7316 H         1 MOL         0.0496
     20 H7          6.3449   -2.4316   -1.3020 H         1 MOL         0.0642
     21 H8          5.4954   -3.9891   -1.3084 H         1 MOL         0.0642
     22 H9          4.7296   -2.6264    0.5198 H         1 MOL         0.3160
@<TRIPOS>BOND
     1    1    2 ar
     2    1    4 ar
     3    2    5 ar
     4    3    4 ar
     5    3    6 ar
     6    4   10 1
     7    5    6 ar
     8    5   12 1
     9    6   13 1
    10    7    9 1
    11    7   10 am
    12    7   11 2
    13    8    9 1
    14    1   14 1
    15    2   15 1
    16    3   16 1
    17    8   17 1
    18    8   18 1
    19    8   19 1
    20    9   20 1
    21    9   21 1
    22   10   22 1
