@<TRIPOS>MOLECULE
pentylcyclopentane
   30    30     0     0     0
SMALL
USER_CHARGES

@<TRIPOS>ATOM
      1 C1         -0.2059    0.4420   -0.8625 C.3       1 MOL        -0.0812
      2 C2         -1.5957    0.0196   -1.3422 C.3       1 MOL        -0.0812
      3 C3          0.7547    0.1089   -2.0000 C.3       1 MOL        -0.0784
      4 C4         -1.4068   -0.5300   -2.7523 C.3       1 MOL        -0.0784
      5 C5          0.0448   -0.9981   -2.7731 C.3       1 MOL        -0.0702
      6 C6          0.1646   -3.7626   -8.4974 C.3       1 MOL        -0.0926
      7 C7          0.5910   -1.1933   -4.1767 C.3       1 MOL        -0.0692
      8 C8         -0.3822   -3.5677   -7.0922 C.3       1 MOL        -0.0794
      9 C9         -0.1723   -2.2839   -4.9279 C.3       1 MOL        -0.0783
     10 C10         0.4022   -2.5008   -6.3288 C.3       1 MOL        -0.0788
     11 H1         -0.1688    1.5066   -0.6097 H         1 MOL         0.0402
     12 H2          0.0613   -0.1191    0.0405 H         1 MOL         0.0402
     13 H3         -1.9949   -0.7574   -0.6802 H         1 MOL         0.0402
     14 H4         -2.3027    0.8551   -1.3308 H         1 MOL         0.0402
     15 H5          0.9009    0.9943   -2.6310 H         1 MOL         0.0422
     16 H6          1.7358   -0.2044   -1.6295 H         1 MOL         0.0422
     17 H7         -2.1096   -1.3389   -2.9744 H         1 MOL         0.0422
     18 H8         -1.5706    0.2690   -3.4860 H         1 MOL         0.0422
     19 H9          0.1305   -1.9418   -2.2181 H         1 MOL         0.0475
     20 H10         0.1327   -2.8266   -9.0644 H         1 MOL         0.0323
     21 H11         1.2015   -4.1127   -8.4696 H         1 MOL         0.0323
     22 H12        -0.4308   -4.5066   -9.0358 H         1 MOL         0.0323
     23 H13         1.6532   -1.4567   -4.1155 H         1 MOL         0.0397
     24 H14         0.5224   -0.2461   -4.7241 H         1 MOL         0.0397
     25 H15        -0.3360   -4.5211   -6.5532 H         1 MOL         0.0382
     26 H16        -1.4384   -3.2806   -7.1540 H         1 MOL         0.0382
     27 H17        -1.2306   -2.0059   -5.0038 H         1 MOL         0.0401
     28 H18        -0.1245   -3.2222   -4.3618 H         1 MOL         0.0401
     29 H19         1.4539   -2.8025   -6.2521 H         1 MOL         0.0389
     30 H20         0.3768   -1.5567   -6.8866 H         1 MOL         0.0389
@<TRIPOS>BOND
     1    1    2 1
     2    1    3 1
     3    2    4 1
     4    3    5 1
     5    4    5 1
     6    5    7 1
     7    6    8 1
     8    7    9 1
     9    8   10 1
    10    9   10 1
    11    1   11 1
    12    1   12 1
    13    2   13 1
    14    2   14 1
    15    3   15 1
    16    3   16 1
    17    4   17 1
    18    4   18 1
    19    5   19 1
    20    6   20 1
    21    6   21 1
    22    6   22 1
    23    7   23 1
    24    7   24 1
    25    8   25 1
    26    8   26 1
    27    9   27 1
    28    9   28 1
    29   10   29 1
    30   10   30 1
