@<TRIPOS>MOLECULE
N,N,4-trimethylbenzamide
   25    25     0     0     0
SMALL
USER_CHARGES

@<TRIPOS>ATOM
      1 C1          1.8052   -1.0910   -0.1542 C.ar      1 MOL        -0.0964
      2 C2          2.7527   -1.6968    1.9841 C.ar      1 MOL        -0.0964
      3 C3          0.6940   -0.5491    0.4917 C.ar      1 MOL        -0.1346
      4 C4          1.6415   -1.1549    2.6300 C.ar      1 MOL        -0.1346
      5 C5          2.8346   -1.6649    0.5920 C.ar      1 MOL        -0.1314
      6 C6          0.6121   -0.5810    1.8838 C.ar      1 MOL        -0.0632
      7 C7          3.9939   -2.2297   -0.0803 C.2       1 MOL         0.6715
      8 C8         -0.5758   -0.0005    2.5740 C.3       1 MOL        -0.0583
      9 C9          6.3055   -1.8983   -0.9903 C.3       1 MOL         0.0839
     10 C10         5.1220    0.0103    0.0370 C.3       1 MOL         0.0839
     11 N1          5.1027   -1.4024   -0.3363 N.am      1 MOL        -0.4829
     12 O1          3.9394   -3.4296   -0.3809 O.2       1 MOL        -0.5927
     13 H1          1.8594   -1.0610   -1.2393 H         1 MOL         0.1420
     14 H2          3.5487   -2.1414    2.5758 H         1 MOL         0.1420
     15 H3         -0.1032   -0.1037   -0.0975 H         1 MOL         0.1363
     16 H4          1.5862   -1.1836    3.7152 H         1 MOL         0.1363
     17 H5         -1.3536   -0.7632    2.7019 H         1 MOL         0.0472
     18 H6         -0.3087    0.3935    3.5631 H         1 MOL         0.0472
     19 H7         -0.9991    0.8359    2.0026 H         1 MOL         0.0472
     20 H8          6.2204   -1.7793   -2.0735 H         1 MOL         0.0421
     21 H9          6.4497   -2.9581   -0.7630 H         1 MOL         0.0421
     22 H10         7.1809   -1.3431   -0.6429 H         1 MOL         0.0421
     23 H11         5.5223    0.1264    1.0475 H         1 MOL         0.0421
     24 H12         4.1095    0.4221    0.0101 H         1 MOL         0.0421
     25 H13         5.7490    0.5761   -0.6572 H         1 MOL         0.0421
@<TRIPOS>BOND
     1    1    3 ar
     2    1    5 ar
     3    2    4 ar
     4    2    5 ar
     5    3    6 ar
     6    4    6 ar
     7    5    7 1
     8    6    8 1
     9    7   11 am
    10    7   12 2
    11    9   11 1
    12   10   11 1
    13    1   13 1
    14    2   14 1
    15    3   15 1
    16    4   16 1
    17    8   17 1
    18    8   18 1
    19    8   19 1
    20    9   20 1
    21    9   21 1
    22    9   22 1
    23   10   23 1
    24   10   24 1
    25   10   25 1
