@<TRIPOS>MOLECULE
1-phenylethanone
   17    17     0     0     0
SMALL
USER_CHARGES

@<TRIPOS>ATOM
      1 C1          1.8851   -1.0363   -0.1124 C.ar      1 MOL        -0.1137
      2 C2          0.8066   -0.4630    0.5610 C.ar      1 MOL        -0.1345
      3 C3          2.9210   -1.6309    0.6081 C.ar      1 MOL        -0.1345
      4 C4          0.7638   -0.4841    1.9551 C.ar      1 MOL        -0.0959
      5 C5          2.8783   -1.6520    2.0022 C.ar      1 MOL        -0.0959
      6 C6          1.7997   -1.0786    2.6757 C.ar      1 MOL        -0.1630
      7 C7          1.7551   -1.1006    4.1291 C.2       1 MOL         0.5767
      8 C8          1.0462    0.0290    4.8183 C.3       1 MOL        -0.1975
      9 O1          2.2594   -1.9739    4.8383 O.2       1 MOL        -0.5221
     10 H1          1.9184   -1.0198   -1.1978 H         1 MOL         0.1344
     11 H2          0.0002    0.0000   -0.0002 H         1 MOL         0.1361
     12 H3          3.7607   -2.0775    0.0838 H         1 MOL         0.1361
     13 H4         -0.0814   -0.0344    2.4697 H         1 MOL         0.1388
     14 H5          3.6911   -2.1179    2.5534 H         1 MOL         0.1388
     15 H6         -0.0263   -0.1547    4.9891 H         1 MOL         0.0655
     16 H7          1.1360    0.9872    4.2835 H         1 MOL         0.0655
     17 H8          1.4406    0.2390    5.8285 H         1 MOL         0.0655
@<TRIPOS>BOND
     1    1    2 ar
     2    1    3 ar
     3    2    4 ar
     4    3    5 ar
     5    4    6 ar
     6    5    6 ar
     7    6    7 1
     8    7    8 1
     9    7    9 2
    10    1   10 1
    11    2   11 1
    12    3   12 1
    13    4   13 1
    14    5   14 1
    15    8   15 1
    16    8   16 1
    17    8   17 1
