@<TRIPOS>MOLECULE
2,6-dimethylpyridine
   17    17     0     0     0
SMALL
USER_CHARGES

@<TRIPOS>ATOM
      1 C1          1.3879   -0.0684    1.6522 C.ar      1 MOL        -0.0887
      2 C2          0.2265   -0.4197    0.9733 C.ar      1 MOL        -0.2557
      3 C3          1.6520   -0.6227    2.8997 C.ar      1 MOL        -0.2557
      4 C4         -0.6317   -1.3224    1.5803 C.ar      1 MOL         0.4199
      5 C5          0.7299   -1.5161    3.4206 C.ar      1 MOL         0.4199
      6 C6         -1.8875   -1.7228    0.8804 C.3       1 MOL        -0.1494
      7 C7          0.9808   -2.1308    4.7573 C.3       1 MOL        -0.1494
      8 N1         -0.4092   -1.8816    2.7908 N.ar      1 MOL        -0.6754
      9 H1          2.0848    0.6373    1.2103 H         1 MOL         0.1340
     10 H2          0.0081    0.0065   -0.0001 H         1 MOL         0.1418
     11 H3          2.5550   -0.3581    3.4393 H         1 MOL         0.1418
     12 H4         -1.7089   -2.6027    0.2510 H         1 MOL         0.0528
     13 H5         -2.6830   -1.9625    1.5973 H         1 MOL         0.0528
     14 H6         -2.2650   -0.9108    0.2458 H         1 MOL         0.0528
     15 H7          0.5462   -1.5099    5.5497 H         1 MOL         0.0528
     16 H8          0.5430   -3.1350    4.8214 H         1 MOL         0.0528
     17 H9          2.0559   -2.2393    4.9493 H         1 MOL         0.0528
@<TRIPOS>BOND
     1    1    2 ar
     2    1    3 ar
     3    2    4 ar
     4    3    5 ar
     5    4    6 1
     6    4    8 ar
     7    5    7 1
     8    5    8 ar
     9    1    9 1
    10    2   10 1
    11    3   11 1
    12    6   12 1
    13    6   13 1
    14    6   14 1
    15    7   15 1
    16    7   16 1
    17    7   17 1
