@<TRIPOS>MOLECULE
pyridine-3-carbonitrile
   12    12     0     0     0
SMALL
USER_CHARGES

@<TRIPOS>ATOM
      1 C1          2.8350   -0.2828    3.6206 C.1       1 MOL         0.2349
      2 C2          0.2265   -0.4197    0.9733 C.ar      1 MOL        -0.2521
      3 C3          1.3879   -0.0684    1.6522 C.ar      1 MOL        -0.0542
      4 C4         -0.6317   -1.3224    1.5803 C.ar      1 MOL         0.4166
      5 C5          0.7299   -1.5161    3.4206 C.ar      1 MOL         0.4353
      6 C6          1.6520   -0.6227    2.8997 C.ar      1 MOL        -0.1360
      7 N1          3.7975   -0.0063    4.2071 N.1       1 MOL        -0.3518
      8 N2         -0.4092   -1.8816    2.7908 N.ar      1 MOL        -0.6629
      9 H1         -0.0010   -0.0002    0.0000 H         1 MOL         0.1517
     10 H2          2.0777    0.6377    1.1968 H         1 MOL         0.1521
     11 H3         -1.5504   -1.6290    1.0917 H         1 MOL         0.0304
     12 H4          0.8767   -1.9834    4.3904 H         1 MOL         0.0359
@<TRIPOS>BOND
     1    1    6 1
     2    1    7 3
     3    2    3 ar
     4    2    4 ar
     5    3    6 ar
     6    4    8 ar
     7    5    6 ar
     8    5    8 ar
     9    2    9 1
    10    3   10 1
    11    4   11 1
    12    5   12 1
