@<TRIPOS>MOLECULE
5-amino-4-chloro-2-phenyl-pyridazin-3-one
   23    24     0     0     0
SMALL
USER_CHARGES

@<TRIPOS>ATOM
      1 C1          6.0296    0.7035   -6.7360 C.ar      1 MOL        -0.1326
      2 C2          4.8157    1.3889   -6.7830 C.ar      1 MOL        -0.1250
      3 C3          6.3222   -0.1233   -5.6514 C.ar      1 MOL        -0.1250
      4 C4          3.8945    1.2476   -5.7452 C.ar      1 MOL        -0.1197
      5 C5          5.4010   -0.2646   -4.6136 C.ar      1 MOL        -0.1197
      6 C6          4.1871    0.4209   -4.6605 C.ar      1 MOL         0.0576
      7 C7          3.0630   -0.1058   -1.3399 C.2       1 MOL         0.3020
      8 C8          1.6026    0.0360   -1.2907 C.2       1 MOL         0.1493
      9 C9          1.0405    0.2704   -2.4781 C.2       1 MOL        -0.2201
     10 C10         1.8445    0.3726   -3.7330 C.2       1 MOL         0.7103
     11 N1          3.8182    0.0039   -2.3776 N.2       1 MOL        -0.3943
     12 N2          3.2337    0.2748   -3.5870 N.am      1 MOL        -0.1197
     13 N3          1.0057   -0.0887   -0.0755 N.pl3     1 MOL        -0.8599
     14 O1          1.2405    0.5133   -4.7962 O.2       1 MOL        -0.5950
     15 Cl1        -0.6732    0.4609   -2.6326 Cl        1 MOL        -0.0660
     16 H1          6.7469    0.8126   -7.5443 H         1 MOL         0.1322
     17 H2          4.5872    2.0320   -7.6277 H         1 MOL         0.1367
     18 H3          7.2672   -0.6577   -5.6156 H         1 MOL         0.1367
     19 H4          2.9516    1.7867   -5.7928 H         1 MOL         0.1562
     20 H5          5.6399   -0.9118   -3.7733 H         1 MOL         0.1562
     21 H6          3.5535   -0.3263   -0.3766 H         1 MOL         0.0502
     22 H7          1.5755   -0.2694    0.7249 H         1 MOL         0.4447
     23 H8          0.0129    0.0035   -0.0143 H         1 MOL         0.4447
@<TRIPOS>BOND
     1    1    2 ar
     2    1    3 ar
     3    2    4 ar
     4    3    5 ar
     5    4    6 ar
     6    5    6 ar
     7    6   12 1
     8    7    8 1
     9    7   11 2
    10    8    9 2
    11    8   13 1
    12    9   10 1
    13    9   15 1
    14   10   12 am
    15   10   14 2
    16   11   12 1
    17    1   16 1
    18    2   17 1
    19    3   18 1
    20    4   19 1
    21    5   20 1
    22    7   21 1
    23   13   22 1
    24   13   23 1
