@<TRIPOS>MOLECULE
pentylbenzene
   27    27     0     0     0
SMALL
USER_CHARGES

@<TRIPOS>ATOM
      1 C1          0.9915   -3.7684   -7.1578 C.ar      1 MOL        -0.1350
      2 C2          1.9678   -3.2588   -6.3018 C.ar      1 MOL        -0.1278
      3 C3         -0.0359   -2.9426   -7.6143 C.ar      1 MOL        -0.1278
      4 C4          1.9167   -1.9234   -5.9022 C.ar      1 MOL        -0.1309
      5 C5         -0.0870   -1.6072   -7.2146 C.ar      1 MOL        -0.1309
      6 C6          0.8893   -1.0976   -6.3586 C.ar      1 MOL        -0.0737
      7 C7         -1.0813    3.6698   -2.6105 C.3       1 MOL        -0.0941
      8 C8          0.8337    0.3368   -5.9296 C.3       1 MOL        -0.0347
      9 C9         -0.9254    2.2040   -2.9832 C.3       1 MOL        -0.0793
     10 C10         0.0276    0.5585   -4.6460 C.3       1 MOL        -0.0810
     11 C11        -0.0928    2.0347   -4.2546 C.3       1 MOL        -0.0771
     12 H1          1.0322   -4.8079   -7.4700 H         1 MOL         0.1288
     13 H2          2.7684   -3.9013   -5.9472 H         1 MOL         0.1304
     14 H3         -0.7955   -3.3388   -8.2816 H         1 MOL         0.1304
     15 H4          2.6815   -1.5349   -5.2348 H         1 MOL         0.1305
     16 H5         -0.8912   -0.9713   -7.5752 H         1 MOL         0.1305
     17 H6         -1.5551    4.2322   -3.4214 H         1 MOL         0.0329
     18 H7         -1.7061    3.7695   -1.7176 H         1 MOL         0.0329
     19 H8         -0.1093    4.1263   -2.3978 H         1 MOL         0.0329
     20 H9          1.8502    0.7308   -5.8080 H         1 MOL         0.0495
     21 H10         0.3778    0.9169   -6.7423 H         1 MOL         0.0495
     22 H11        -0.4492    1.6701   -2.1525 H         1 MOL         0.0389
     23 H12        -1.9185    1.7624   -3.1263 H         1 MOL         0.0389
     24 H13         0.4690   -0.0068   -3.8159 H         1 MOL         0.0439
     25 H14        -0.9793    0.1520   -4.8034 H         1 MOL         0.0439
     26 H15         0.9028    2.4626   -4.0905 H         1 MOL         0.0391
     27 H16        -0.5573    2.5959   -5.0744 H         1 MOL         0.0391
@<TRIPOS>BOND
     1    1    2 ar
     2    1    3 ar
     3    2    4 ar
     4    3    5 ar
     5    4    6 ar
     6    5    6 ar
     7    6    8 1
     8    7    9 1
     9    8   10 1
    10    9   11 1
    11   10   11 1
    12    1   12 1
    13    2   13 1
    14    3   14 1
    15    4   15 1
    16    5   16 1
    17    7   17 1
    18    7   18 1
    19    7   19 1
    20    8   20 1
    21    8   21 1
    22    9   22 1
    23    9   23 1
    24   10   24 1
    25   10   25 1
    26   11   26 1
    27   11   27 1
