@<TRIPOS>MOLECULE
tert-butylbenzene
   24    24     0     0     0
SMALL
USER_CHARGES

@<TRIPOS>ATOM
      1 C1         -2.1406   -2.8050    3.6043 C.ar      1 MOL        -0.1337
      2 C2         -0.9830   -2.0536    3.4020 C.ar      1 MOL        -0.1299
      3 C3         -3.2818   -2.5459    2.8452 C.ar      1 MOL        -0.1299
      4 C4         -0.9665   -1.0431    2.4406 C.ar      1 MOL        -0.1283
      5 C5         -3.2653   -1.5355    1.8838 C.ar      1 MOL        -0.1283
      6 C6         -2.1077   -0.7840    1.6815 C.ar      1 MOL        -0.0642
      7 C7         -1.0055    0.0255   -0.4341 C.3       1 MOL        -0.0857
      8 C8         -1.7775    1.6835    1.2954 C.3       1 MOL        -0.0857
      9 C9         -3.4286    0.4950   -0.1338 C.3       1 MOL        -0.0857
     10 C10        -2.0904    0.3299    0.6216 C.3       1 MOL        -0.0096
     11 H1         -2.1528   -3.5926    4.3521 H         1 MOL         0.1292
     12 H2         -0.0940   -2.2559    3.9922 H         1 MOL         0.1299
     13 H3         -4.1829   -3.1314    3.0017 H         1 MOL         0.1299
     14 H4         -0.0601   -0.4627    2.2899 H         1 MOL         0.1308
     15 H5         -4.1592   -1.3406    1.2971 H         1 MOL         0.1308
     16 H6         -0.9722    0.8062   -1.2031 H         1 MOL         0.0367
     17 H7         -0.0039   -0.0333    0.0056 H         1 MOL         0.0367
     18 H8         -1.2009   -0.9294   -0.9363 H         1 MOL         0.0367
     19 H9         -1.7547    2.5093    0.5760 H         1 MOL         0.0367
     20 H10        -2.5344    1.9349    2.0476 H         1 MOL         0.0367
     21 H11        -0.8033    1.6580    1.7980 H         1 MOL         0.0367
     22 H12        -3.3662    1.2993   -0.8768 H         1 MOL         0.0367
     23 H13        -3.7038   -0.4195   -0.6722 H         1 MOL         0.0367
     24 H14        -4.2482    0.7498    0.5482 H         1 MOL         0.0367
@<TRIPOS>BOND
     1    1    2 ar
     2    1    3 ar
     3    2    4 ar
     4    3    5 ar
     5    4    6 ar
     6    5    6 ar
     7    6   10 1
     8    7   10 1
     9    8   10 1
    10    9   10 1
    11    1   11 1
    12    2   12 1
    13    3   13 1
    14    4   14 1
    15    5   15 1
    16    7   16 1
    17    7   17 1
    18    7   18 1
    19    8   19 1
    20    8   20 1
    21    8   21 1
    22    9   22 1
    23    9   23 1
    24    9   24 1
