@<TRIPOS>MOLECULE
1,2-dichlorobenzene
   12    12     0     0     0
SMALL
USER_CHARGES

@<TRIPOS>ATOM
      1 C1          1.8851   -1.0363   -0.1124 C.ar      1 MOL        -0.1214
      2 C2          0.8066   -0.4630    0.5610 C.ar      1 MOL        -0.1213
      3 C3          2.9210   -1.6309    0.6081 C.ar      1 MOL        -0.1176
      4 C4          0.7638   -0.4841    1.9551 C.ar      1 MOL        -0.1176
      5 C5          2.8783   -1.6520    2.0022 C.ar      1 MOL         0.0174
      6 C6          1.7997   -1.0786    2.6757 C.ar      1 MOL         0.0174
      7 Cl1         4.1911   -2.4035    2.8390 Cl        1 MOL        -0.0705
      8 Cl2         1.6892   -1.0728    4.4009 Cl        1 MOL        -0.0705
      9 H1          1.9184   -1.0196   -1.1977 H         1 MOL         0.1409
     10 H2          0.0003   -0.0006   -0.0005 H         1 MOL         0.1409
     11 H3          3.7542   -2.0725    0.0670 H         1 MOL         0.1511
     12 H4         -0.0841   -0.0322    2.4635 H         1 MOL         0.1511
@<TRIPOS>BOND
     1    1    2 ar
     2    1    3 ar
     3    2    4 ar
     4    3    5 ar
     5    4    6 ar
     6    5    6 ar
     7    5    7 1
     8    6    8 1
     9    1    9 1
    10    2   10 1
    11    3   11 1
    12    4   12 1
