@<TRIPOS>MOLECULE
2,4-dimethylpentan-3-one
   22    21     0     0     0
SMALL
USER_CHARGES

@<TRIPOS>ATOM
      1 C1          0.1056   -0.0864    0.5492 C.2       1 MOL         0.5689
      2 C2          2.2666    1.1698    0.2702 C.3       1 MOL        -0.0865
      3 C3          0.0632    2.2925   -0.1867 C.3       1 MOL        -0.0865
      4 C4         -2.0775   -1.3244    0.7161 C.3       1 MOL        -0.0865
      5 C5         -0.2604   -2.1326   -0.8230 C.3       1 MOL        -0.0865
      6 C6          0.8442    0.9854   -0.2503 C.3       1 MOL        -0.1635
      7 C7         -0.9338   -0.9126   -0.2061 C.3       1 MOL        -0.1635
      8 O1          0.3363   -0.2748    1.7444 O.2       1 MOL        -0.5271
      9 H1          2.2736    1.5064    1.3129 H         1 MOL         0.0427
     10 H2          2.8058    1.9116   -0.3281 H         1 MOL         0.0427
     11 H3          2.8223    0.2270    0.2231 H         1 MOL         0.0427
     12 H4         -0.0182    2.6531    0.8441 H         1 MOL         0.0427
     13 H5          0.5561    3.0785   -0.7699 H         1 MOL         0.0427
     14 H6         -0.9505    2.1610   -0.5787 H         1 MOL         0.0427
     15 H7         -1.7095   -1.9546    1.5331 H         1 MOL         0.0427
     16 H8         -2.5572   -0.4441    1.1565 H         1 MOL         0.0427
     17 H9         -2.8439   -1.8939    0.1784 H         1 MOL         0.0427
     18 H10         0.1708   -2.7803   -0.0516 H         1 MOL         0.0427
     19 H11        -0.9773   -2.7226   -1.4031 H         1 MOL         0.0427
     20 H12         0.5534   -1.8370   -1.4935 H         1 MOL         0.0427
     21 H13         0.9089    0.6501   -1.2919 H         1 MOL         0.0596
     22 H14        -1.3538   -0.2868   -1.0021 H         1 MOL         0.0596
@<TRIPOS>BOND
     1    1    6 1
     2    1    7 1
     3    1    8 2
     4    2    6 1
     5    3    6 1
     6    4    7 1
     7    5    7 1
     8    2    9 1
     9    2   10 1
    10    2   11 1
    11    3   12 1
    12    3   13 1
    13    3   14 1
    14    4   15 1
    15    4   16 1
    16    4   17 1
    17    5   18 1
    18    5   19 1
    19    5   20 1
    20    6   21 1
    21    7   22 1
